                                   MODFLOW 6
                U.S. GEOLOGICAL SURVEY MODULAR HYDROLOGIC MODEL
                            VERSION 6.2.2 07/30/2021

   MODFLOW 6 compiled Jul 30 2021 14:34:58 with IFORT compiler (ver. 19.10.2)

This software has been approved for release by the U.S. Geological 
Survey (USGS). Although the software has been subjected to rigorous 
review, the USGS reserves the right to update the software as needed 
pursuant to further analysis and review. No warranty, expressed or 
implied, is made by the USGS or the U.S. Government as to the 
functionality of the software and related material nor shall the 
fact of release constitute any such warranty. Furthermore, the 
software is released on condition that neither the USGS nor the U.S. 
Government shall be held liable for any damages resulting from its 
authorized or unauthorized use. Also refer to the USGS Water 
Resources Software User Rights Notice for complete use, copyright, 
and distribution information.


System command used to initiate simulation:
mf6.exe

MODFLOW was compiled using uniform precision.

Real Variables
  KIND: 8
  TINY (smallest non-zero value):    2.225074-308
  HUGE (largest value):    1.797693+308
  PRECISION: 15
  BIT SIZE: 64

Integer Variables
  KIND: 4
  HUGE (largest value): 2147483647
  BIT SIZE: 32

Long Integer Variables
  KIND: 8
  HUGE (largest value): 9223372036854775807
  BIT SIZE: 64

Logical Variables
  KIND: 4
  BIT SIZE: 32
 

 OPENED mfsim.nam
 FILE TYPE:NAM   UNIT 1001   STATUS:OLD                 
 FORMAT:FORMATTED              ACCESS:SEQUENTIAL          
 ACTION:READ                

 # File generated by Flopy version 3.3.5 on 04/08/2022 at 15:14:52.

 READING SIMULATION OPTIONS
 END OF SIMULATION OPTIONS

 READING SIMULATION TIMING

 OPENED mfsim.tdis
 FILE TYPE:TDIS   UNIT 1002   STATUS:OLD                 
 FORMAT:FORMATTED              ACCESS:SEQUENTIAL          
 ACTION:READ                


 TDIS -- TEMPORAL DISCRETIZATION PACKAGE,
 VERSION 1 : 11/13/2014 - INPUT READ FROM UNIT 1002
 # File generated by Flopy version 3.3.5 on 04/08/2022 at 15:14:52.
 PROCESSING TDIS OPTIONS
    SIMULATION TIME UNIT IS SECONDS
 END OF TDIS OPTIONS
 PROCESSING TDIS DIMENSIONS
    1 STRESS PERIOD(S) IN SIMULATION
 END OF TDIS DIMENSIONS
 PROCESSING TDIS PERIODDATA


 STRESS PERIOD     LENGTH       TIME STEPS     MULTIPLIER FOR DELT
 ----------------------------------------------------------------------------
        1         1.000000          1                    1.000
 END OF TDIS PERIODDATA
 END OF SIMULATION TIMING

 READING SIMULATION MODELS
    GWF6 model ML will be created as model 1
 END OF SIMULATION MODELS

 READING SIMULATION EXCHANGES
 END OF SIMULATION EXCHANGES

 READING SOLUTIONGROUP

 Creating solution: SLN_1           

 OPENED mfsim.ims
 FILE TYPE:IMS   UNIT 1015   STATUS:OLD                 
 FORMAT:FORMATTED              ACCESS:SEQUENTIAL          
 ACTION:READ                

 END OF SIMULATION SOLUTIONGROUP

 IMS -- ITERATIVE MODEL SOLUTION PACKAGE, VERSION 6, 4/28/2017
         INPUT READ FROM UNIT 1015
 # File generated by Flopy version 3.3.5 on 04/08/2022 at 15:14:52.

 PROCESSING IMS OPTIONS
 END OF IMS OPTIONS

 PROCESSING IMS NONLINEAR
 END OF IMS NONLINEAR DATA
 ***UNDER-RELAXATION WILL NOT BE USED***
 
 ***IMS LINEAR SOLVER WILL BE USED***

 IMSLINEAR -- UNSTRUCTURED LINEAR SOLUTION PACKAGE, VERSION 8, 04/28/2017

 PROCESSING LINEAR DATA
 END OF LINEAR DATA
 
 OUTER ITERATION CONVERGENCE CRITERION    (DVCLOSE) =    0.100000E-04
 MAXIMUM NUMBER OF OUTER ITERATIONS        (MXITER) = 100
 SOLVER PRINTOUT INDEX                     (IPRIMS) = 2
 NONLINEAR ITERATION METHOD            (NONLINMETH) = 0
 LINEAR SOLUTION METHOD                   (LINMETH) = 1

       SOLUTION BY THE        CONJUGATE-GRADIENT       METHOD
 ------------------------------------------------------------------
 MAXIMUM OF 100 CALLS OF SOLUTION ROUTINE
 MAXIMUM OF 50 INTERNAL ITERATIONS PER CALL TO SOLUTION ROUTINE
 LINEAR ACCELERATION METHOD            = CG        
 MATRIX PRECONDITIONING TYPE           = INCOMPLETE LU       
 MATRIX SCALING APPROACH               = NO SCALING          
 MATRIX REORDERING APPROACH            = ORIGINAL ORDERING        
 NUMBER OF ORTHOGONALIZATIONS          = 0
 HEAD CHANGE CRITERION FOR CLOSURE     =    0.10000E-05
 RESIDUAL CHANGE CRITERION FOR CLOSURE =    0.10000E-04
 RESIDUAL CONVERGENCE OPTION           = 1
 RESIDUAL CONVERGENCE NORM             = INFINITY NORM S 
 RELAXATION FACTOR                     =    0.00000E+00



 
    Solving:  Stress period:     1    Time step:     1
 
1
                            STRESS PERIOD NO. 1, LENGTH =   1.000000    
                            -----------------------------------------------
                            NUMBER OF TIME STEPS = 1
                            MULTIPLIER FOR DELT =     1.000
                            INITIAL TIME STEP SIZE =   1.000000    

 SLN_1 OUTER ITERATION SUMMARY
 ----------------------------------------------------------------------------------------------------------
                                OUTER      INNER                    STEP   MAXIMUM CHANGE MODEL-(CELLID) OR
 OUTER ITERATION STEP       ITERATION  ITERATION  MAXIMUM CHANGE SUCCESS             MODEL-PACKAGE-(NUMBER)
 ----------------------------------------------------------------------------------------------------------
 Model                              1         50       51.925133                            1_GWF-(1,26517)
 Model                              2         50      -47.118312                            1_GWF-(1,26517)
 Model                              3         50       1.8629887                            1_GWF-(1,24001)
 Model                              4         50      -1.2755169                            1_GWF-(1,26544)
 Model                              5         50     -0.20301182                            1_GWF-(1,18809)
 Model                              6         50     -0.14068266                            1_GWF-(1,26544)
 Model                              7         50 -3.30586221E-02                             1_GWF-(1,2542)
 Model                              8         50  1.77201465E-02                            1_GWF-(1,21657)
 Model                              9         50 -5.67529047E-03                             1_GWF-(1,2549)
 Model                             10         50 -2.97140782E-03                             1_GWF-(1,3219)
 Model                             11         50 -1.05696642E-03                             1_GWF-(1,2549)
 Model                             12         50 -5.62490606E-04                             1_GWF-(1,3218)
 Model                             13         50 -1.97789412E-04                             1_GWF-(1,2543)
 Model                             14         50 -1.09339234E-04                             1_GWF-(1,3440)
 Model                             15         50 -3.84648305E-05                             1_GWF-(1,2543)
 Model                             16         50 -2.10773799E-05                             1_GWF-(1,3440)
 Model                             17         30  5.47256634E-06                            1_GWF-(1,20623)
 Model                             18          1 -8.02261216E-07       *                    1_GWF-(1,26649)
 ----------------------------------------------------------------------------------------------------------


 18 CALLS TO NUMERICAL SOLUTION IN TIME STEP 1 STRESS PERIOD 1
 831 TOTAL ITERATIONS

 SLN_1 INNER ITERATION SUMMARY
 --------------------------------------------------------------------------------------------------------------------------------------
      TOTAL      OUTER      INNER                                                            MAXIMUM                                   
  ITERATION  ITERATION  ITERATION  MAXIMUM CHANGE      MAXIMUM CHANGE MODEL-(CELLID)        RESIDUAL    MAXIMUM RESIDUAL MODEL-(CELLID)
 --------------------------------------------------------------------------------------------------------------------------------------
          1          1          1      -11.772615                    1_GWF-(1,12785)  9.33975342E-02                      1_GWF-(1,612)
          2          1          2       9.8879982                    1_GWF-(1,26555)  8.01018687E-02                    1_GWF-(1,11530)
          3          1          3       13.097553                    1_GWF-(1,26512)  9.32242851E-02                    1_GWF-(1,11530)
          4          1          4       10.267083                    1_GWF-(1,26510)  8.59244213E-02                    1_GWF-(1,11188)
          5          1          5       7.6773531                    1_GWF-(1,26611)  7.17994589E-02                    1_GWF-(1,11175)
          6          1          6       8.6864646                    1_GWF-(1,26649)  4.39031607E-02                    1_GWF-(1,15109)
          7          1          7       7.1774679                    1_GWF-(1,26622)  2.85378657E-02                    1_GWF-(1,15108)
          8          1          8       6.0035396                    1_GWF-(1,26665)  2.96249176E-02                    1_GWF-(1,10843)
          9          1          9       4.4436903                    1_GWF-(1,26647)  3.41225773E-02                    1_GWF-(1,10843)
         10          1         10       4.5569199                    1_GWF-(1,26486)  3.39037862E-02                    1_GWF-(1,10843)
         11          1         11       4.4967723                    1_GWF-(1,26544)  4.96425732E-02                    1_GWF-(1,15109)
         12          1         12       2.6369492                    1_GWF-(1,26413)  4.77855404E-02                    1_GWF-(1,15109)
         13          1         13       3.1208541                    1_GWF-(1,26422)  4.70735826E-02                    1_GWF-(1,15107)
         14          1         14       2.5515268                    1_GWF-(1,26350)  3.60028669E-02                    1_GWF-(1,15107)
         15          1         15       1.8784618                    1_GWF-(1,26218)  3.41644500E-02                    1_GWF-(1,15108)
         16          1         16      -1.2703385                    1_GWF-(1,16036)  4.93027579E-02                    1_GWF-(1,15109)
         17          1         17      -1.4154462                    1_GWF-(1,26623)  5.16455550E-02                    1_GWF-(1,15109)
         18          1         18      -2.3668935                    1_GWF-(1,26543)  5.28357654E-02                    1_GWF-(1,15109)
         19          1         19      -3.4252456                    1_GWF-(1,26588)  4.10214291E-02                    1_GWF-(1,15107)
         20          1         20      -2.7582125                    1_GWF-(1,26543)  3.96142478E-02                    1_GWF-(1,15108)
         21          1         21      -2.3744514                    1_GWF-(1,26487)  5.10117539E-02                    1_GWF-(1,15109)
         22          1         22      -2.7175836                    1_GWF-(1,26486)  5.03431587E-02                    1_GWF-(1,15107)
         23          1         23      -2.8320533                    1_GWF-(1,26487)  5.69197313E-02                    1_GWF-(1,15109)
         24          1         24      -2.7885386                    1_GWF-(1,26486)  4.95505121E-02                    1_GWF-(1,15109)
         25          1         25       2.4875324                    1_GWF-(1,26420)  4.97980289E-02                    1_GWF-(1,15108)
         26          1         26       2.4498429                    1_GWF-(1,26487)  5.82344532E-02                    1_GWF-(1,15109)
         27          1         27       2.1381256                    1_GWF-(1,26420)  4.79796641E-02                    1_GWF-(1,15107)
         28          1         28       1.6390030                    1_GWF-(1,26422)  4.35308904E-02                    1_GWF-(1,15109)
         29          1         29       1.2607262                    1_GWF-(1,26350)  3.57115325E-02                    1_GWF-(1,15108)
         30          1         30      -1.4844704                    1_GWF-(1,25468) -4.85681427E-02                    1_GWF-(1,11189)
         31          1         31      -1.9205521                    1_GWF-(1,25454)  4.19511884E-02                    1_GWF-(1,15109)
         32          1         32      -2.2440998                    1_GWF-(1,25450)  2.52917739E-02                    1_GWF-(1,15107)
         33          1         33      -2.1472677                    1_GWF-(1,26422)  2.49951803E-02                     1_GWF-(1,9051)
         34          1         34      -1.6664960                    1_GWF-(1,25279)  2.59682138E-02                     1_GWF-(1,9051)
         35          1         35      -1.5968780                    1_GWF-(1,26486)  2.55764227E-02                     1_GWF-(1,9051)
         36          1         36      -1.3687019                    1_GWF-(1,25209) -2.45022487E-02                    1_GWF-(1,11532)
         37          1         37      -1.5181444                    1_GWF-(1,25229) -2.85062836E-02                    1_GWF-(1,11531)
         38          1         38      -1.5757764                    1_GWF-(1,24835) -3.22381222E-02                    1_GWF-(1,11530)
         39          1         39      -1.6480133                    1_GWF-(1,24842)  4.39987235E-02                    1_GWF-(1,11530)
         40          1         40      -1.4490716                    1_GWF-(1,24884)  4.34492431E-02                    1_GWF-(1,11189)
         41          1         41      -1.3177386                    1_GWF-(1,21703) -3.13879406E-02                    1_GWF-(1,11189)
         42          1         42      -1.2554513                    1_GWF-(1,21741) -2.46568521E-02                    1_GWF-(1,11190)
         43          1         43      -1.0432820                    1_GWF-(1,24882)  2.28190003E-02                    1_GWF-(1,11177)
         44          1         44       1.2767412                    1_GWF-(1,26217)  2.72739830E-02                    1_GWF-(1,15107)
         45          1         45       1.4310585                    1_GWF-(1,26218) -2.31952308E-02                    1_GWF-(1,11186)
         46          1         46       1.4025246                    1_GWF-(1,22433) -2.60267216E-02                    1_GWF-(1,11174)
         47          1         47       1.5722968                    1_GWF-(1,22424) -2.05063943E-02                    1_GWF-(1,11169)
         48          1         48       1.7140538                    1_GWF-(1,25178) -2.16560094E-02                    1_GWF-(1,11145)
         49          1         49      -1.9152341                    1_GWF-(1,26217)  1.84332710E-02                     1_GWF-(1,9052)
         50          1         50      -1.9134818                    1_GWF-(1,26218)  1.79961286E-02                     1_GWF-(1,9291)
         51          2          1      -48.160921                    1_GWF-(1,26519)     -0.26235480                    1_GWF-(1,26458)
         52          2          2      -19.960944                    1_GWF-(1,26513)  5.92090318E-02                    1_GWF-(1,26458)
         53          2          3      -9.6545505                    1_GWF-(1,26637)  4.73831830E-02                    1_GWF-(1,26516)
         54          2          4      -10.007757                    1_GWF-(1,26665) -1.95373900E-02                    1_GWF-(1,26610)
         55          2          5      -6.8327183                    1_GWF-(1,26622)  2.72111742E-02                    1_GWF-(1,26458)
         56          2          6      -5.9465155                    1_GWF-(1,26589)  1.58116814E-02                     1_GWF-(1,9291)
         57          2          7      -5.4168561                    1_GWF-(1,26543)  1.58173064E-02                     1_GWF-(1,9291)
         58          2          8      -4.6537821                    1_GWF-(1,26486)  1.59478265E-02                     1_GWF-(1,9291)
         59          2          9      -3.4730108                    1_GWF-(1,26487)  1.60545142E-02                     1_GWF-(1,9291)
         60          2         10      -3.1654428                    1_GWF-(1,26350)  1.59318565E-02                     1_GWF-(1,9291)
         61          2         11      -2.6228881                    1_GWF-(1,26348)  1.56767549E-02                     1_GWF-(1,9291)
         62          2         12      -2.2885587                    1_GWF-(1,26217)  1.53920405E-02                     1_GWF-(1,9291)
         63          2         13      -1.4870400                    1_GWF-(1,26218)  1.51030883E-02                     1_GWF-(1,9291)
         64          2         14      -1.1481520                    1_GWF-(1,26649)  1.46644662E-02                     1_GWF-(1,9291)
         65          2         15      -1.3410045                    1_GWF-(1,26622)  1.37342610E-02                     1_GWF-(1,9291)
         66          2         16      -1.7815279                    1_GWF-(1,25509)  1.24884583E-02                     1_GWF-(1,9051)
         67          2         17       1.8283930                    1_GWF-(1,26218)  1.28696849E-02                     1_GWF-(1,9051)
         68          2         18       1.7483054                    1_GWF-(1,26422)  1.33182796E-02                     1_GWF-(1,9051)
         69          2         19       1.4264629                    1_GWF-(1,26218)  1.36166332E-02                     1_GWF-(1,9051)
         70          2         20      0.99700410                    1_GWF-(1,26543)  1.36719757E-02                     1_GWF-(1,9051)
         71          2         21       1.3634523                    1_GWF-(1,26588)  1.34592917E-02                     1_GWF-(1,9051)
         72          2         22       1.6232324                    1_GWF-(1,26543)  1.29969882E-02                     1_GWF-(1,9051)
         73          2         23      -1.1563042                    1_GWF-(1,26218)  1.23104412E-02                     1_GWF-(1,9051)
         74          2         24      -1.3827278                    1_GWF-(1,26487)  1.13910499E-02                     1_GWF-(1,9051)
         75          2         25      -1.7221742                    1_GWF-(1,26486)  1.04283555E-02                     1_GWF-(1,9051)
         76          2         26      -1.9062176                    1_GWF-(1,26487)  1.04081522E-02                    1_GWF-(1,10010)
         77          2         27      -1.2976305                    1_GWF-(1,26486)  1.12701452E-02                    1_GWF-(1,10010)
         78          2         28      0.60659884                    1_GWF-(1,26217)  1.17405843E-02                    1_GWF-(1,10010)
         79          2         29      0.70407237                    1_GWF-(1,26218)  1.20251445E-02                    1_GWF-(1,10010)
         80          2         30      0.76797638                    1_GWF-(1,26420)  1.21987570E-02                    1_GWF-(1,10010)
         81          2         31      0.77972730                    1_GWF-(1,25248)  1.23023833E-02                    1_GWF-(1,10010)
         82          2         32      0.66818658                    1_GWF-(1,25252)  1.20946200E-02                    1_GWF-(1,10010)
         83          2         33      0.59268556                    1_GWF-(1,25206)  1.17552725E-02                    1_GWF-(1,10010)
         84          2         34      0.52610460                    1_GWF-(1,26350)  1.13965036E-02                    1_GWF-(1,10010)
         85          2         35      0.92331600                    1_GWF-(1,26422)  1.09511802E-02                    1_GWF-(1,10010)
         86          2         36      0.70234175                    1_GWF-(1,26350)  1.03931070E-02                    1_GWF-(1,10010)
         87          2         37      0.62523722                    1_GWF-(1,26486)  9.68722083E-03                    1_GWF-(1,10010)
         88          2         38      0.65987181                    1_GWF-(1,21744)  9.02197616E-03                    1_GWF-(1,11530)
         89          2         39      0.69224636                    1_GWF-(1,21740)  1.12080031E-02                    1_GWF-(1,11189)
         90          2         40      0.62275214                    1_GWF-(1,21704)  1.35853896E-02                    1_GWF-(1,11530)
         91          2         41     -0.46943917                    1_GWF-(1,26623)  1.38275488E-02                    1_GWF-(1,11189)
         92          2         42     -0.52178505                    1_GWF-(1,26588)  1.43278940E-02                    1_GWF-(1,11530)
         93          2         43     -0.49943260                    1_GWF-(1,26350)  1.33321634E-02                    1_GWF-(1,11189)
         94          2         44     -0.62905200                    1_GWF-(1,24835)  1.09662286E-02                    1_GWF-(1,11530)
         95          2         45     -0.75543561                    1_GWF-(1,24834)  9.54880714E-03                    1_GWF-(1,11189)
         96          2         46     -0.75478051                    1_GWF-(1,22359)  9.38619830E-03                    1_GWF-(1,10843)
         97          2         47     -0.91017541                    1_GWF-(1,22349)  1.12023248E-02                    1_GWF-(1,15108)
         98          2         48     -0.87420106                    1_GWF-(1,21767)  1.33459393E-02                    1_GWF-(1,15109)
         99          2         49     -0.74087837                    1_GWF-(1,21732)  1.19282690E-02                    1_GWF-(1,11530)
        100          2         50     -0.67185792                    1_GWF-(1,21723)  1.47114179E-02                    1_GWF-(1,11189)
        101          3          1      0.51303434                    1_GWF-(1,26673)  1.46454702E-02                    1_GWF-(1,11530)
        102          3          2      0.53058353                    1_GWF-(1,26672)  1.39991012E-02                    1_GWF-(1,11189)
        103          3          3      0.61667124                    1_GWF-(1,21738)  1.18562948E-02                    1_GWF-(1,11530)
        104          3          4      0.75163417                    1_GWF-(1,21762)  9.94294708E-03                    1_GWF-(1,15109)
        105          3          5      0.66939142                    1_GWF-(1,21764)  9.46466014E-03                    1_GWF-(1,10843)
        106          3          6      0.59100346                    1_GWF-(1,24835)  9.42027708E-03                    1_GWF-(1,10843)
        107          3          7      0.47703705                    1_GWF-(1,21671) -9.40578132E-03                    1_GWF-(1,15109)
        108          3          8      0.38195844                    1_GWF-(1,21696)  1.01681584E-02                    1_GWF-(1,11530)
        109          3          9     -0.38068109                    1_GWF-(1,26648)  1.15102247E-02                    1_GWF-(1,11189)
        110          3         10      0.38720813                    1_GWF-(1,26350)  1.26253709E-02                    1_GWF-(1,11530)
        111          3         11      0.41895166                    1_GWF-(1,26486)  1.35482606E-02                    1_GWF-(1,11189)
        112          3         12     -0.50854848                    1_GWF-(1,26422)  1.37400248E-02                    1_GWF-(1,11530)
        113          3         13      0.49141303                    1_GWF-(1,26422)  1.09787204E-02                    1_GWF-(1,11189)
        114          3         14      0.54877034                    1_GWF-(1,26350)  7.24305646E-03                    1_GWF-(1,10010)
        115          3         15     -0.59804426                    1_GWF-(1,26350)  7.46855832E-03                    1_GWF-(1,10010)
        116          3         16     -0.61334965                    1_GWF-(1,26422)  7.64760243E-03                    1_GWF-(1,10010)
        117          3         17     -0.38586185                    1_GWF-(1,26420)  8.26215564E-03                    1_GWF-(1,11530)
        118          3         18      0.34301442                    1_GWF-(1,26141)  9.95270527E-03                    1_GWF-(1,11189)
        119          3         19      0.42081234                    1_GWF-(1,26149)  1.00949974E-02                    1_GWF-(1,11530)
        120          3         20      0.40072758                    1_GWF-(1,26160)  9.48681022E-03                    1_GWF-(1,11189)
        121          3         21     -0.41844987                    1_GWF-(1,26420)  8.66246008E-03                    1_GWF-(1,10010)
        122          3         22      0.29300601                    1_GWF-(1,26649)  7.98589947E-03                    1_GWF-(1,10010)
        123          3         23      0.39256681                    1_GWF-(1,26487)  7.50243993E-03                    1_GWF-(1,10010)
        124          3         24      0.66745341                    1_GWF-(1,26486)  7.35320926E-03                    1_GWF-(1,10010)
        125          3         25      0.81986113                    1_GWF-(1,26487)  7.27211132E-03                    1_GWF-(1,10010)
        126          3         26      0.85565136                    1_GWF-(1,26420)  6.78216360E-03                    1_GWF-(1,10010)
        127          3         27      0.77246333                    1_GWF-(1,26487)  8.53212374E-03                     1_GWF-(1,9051)
        128          3         28      0.55479422                    1_GWF-(1,26486)  8.46110815E-03                     1_GWF-(1,9051)
        129          3         29     -0.81955567                    1_GWF-(1,26543)  6.50943782E-03                     1_GWF-(1,9029)
        130          3         30     -0.67477182                    1_GWF-(1,26588)  5.19836451E-03                     1_GWF-(1,9051)
        131          3         31      0.62760549                    1_GWF-(1,26588)  6.13223700E-03                     1_GWF-(1,9051)
        132          3         32     -0.54700163                    1_GWF-(1,26588)  8.14991692E-03                     1_GWF-(1,9051)
        133          3         33     -0.62832367                    1_GWF-(1,26422)  9.15027121E-03                     1_GWF-(1,9051)
        134          3         34     -0.62726316                    1_GWF-(1,26350)  7.46958167E-03                     1_GWF-(1,9029)
        135          3         35     -0.54853496                    1_GWF-(1,26622)  4.59338502E-03                     1_GWF-(1,9029)
        136          3         36      0.55193220                    1_GWF-(1,26622)  5.53835083E-03                     1_GWF-(1,9291)
        137          3         37      0.54159636                    1_GWF-(1,26649)  5.53444588E-03                     1_GWF-(1,9291)
        138          3         38      0.44424479                    1_GWF-(1,26622)  6.92147766E-03                     1_GWF-(1,9051)
        139          3         39      0.47305452                    1_GWF-(1,26217)  6.61382797E-03                     1_GWF-(1,9051)
        140          3         40     -0.53029661                    1_GWF-(1,26665)  5.43213401E-03                     1_GWF-(1,9291)
        141          3         41      0.55972907                    1_GWF-(1,26665)  6.45460715E-03                     1_GWF-(1,9291)
        142          3         42     -0.57532826                    1_GWF-(1,26665)  6.83705032E-03                     1_GWF-(1,9290)
        143          3         43      0.56199844                    1_GWF-(1,26486)  6.73217075E-03                     1_GWF-(1,9051)
        144          3         44      0.61841517                    1_GWF-(1,26543) -6.97009203E-03                    1_GWF-(1,11189)
        145          3         45      0.70684216                    1_GWF-(1,26649) -7.54470318E-03                    1_GWF-(1,15109)
        146          3         46      0.88587669                    1_GWF-(1,26648) -1.26415059E-02                    1_GWF-(1,15108)
        147          3         47      0.64627805                    1_GWF-(1,26640) -8.51589456E-03                    1_GWF-(1,15107)
        148          3         48      0.62554804                    1_GWF-(1,26634) -6.84236763E-03                    1_GWF-(1,15115)
        149          3         49     -0.76022263                    1_GWF-(1,26623) -8.40636262E-03                    1_GWF-(1,15109)
        150          3         50     -0.83123722                    1_GWF-(1,26586) -6.13679063E-03                    1_GWF-(1,11531)
        151          4          1     -0.28046241                    1_GWF-(1,26522)  4.31879135E-03                     1_GWF-(1,9290)
        152          4          2     -0.33077271                    1_GWF-(1,26482)  4.78408910E-03                     1_GWF-(1,9989)
        153          4          3     -0.32996180                    1_GWF-(1,26544) -4.22310749E-03                    1_GWF-(1,15109)
        154          4          4     -0.36480661                    1_GWF-(1,26586) -6.58002846E-03                    1_GWF-(1,15108)
        155          4          5     -0.31611795                    1_GWF-(1,26348) -3.71452909E-03                    1_GWF-(1,15109)
        156          4          6     -0.33740051                    1_GWF-(1,26218)  2.55287663E-03                     1_GWF-(1,9989)
        157          4          7     -0.28860734                    1_GWF-(1,26217)  2.86121970E-03                     1_GWF-(1,9290)
        158          4          8     -0.20613484                    1_GWF-(1,26218)  2.90029339E-03                     1_GWF-(1,9290)
        159          4          9     -0.16058137                    1_GWF-(1,26666)  3.00600121E-03                    1_GWF-(1,15108)
        160          4         10      0.20394271                    1_GWF-(1,26666)  2.73938008E-03                    1_GWF-(1,15109)
        161          4         11      0.27249064                    1_GWF-(1,26665)  2.74562385E-03                     1_GWF-(1,9051)
        162          4         12      0.16333065                    1_GWF-(1,26666)  3.04917700E-03                     1_GWF-(1,9051)
        163          4         13      0.17913193                    1_GWF-(1,26217)  2.54968226E-03                     1_GWF-(1,9051)
        164          4         14      0.19223145                    1_GWF-(1,26622)  2.02373783E-03                     1_GWF-(1,9051)
        165          4         15      0.19457157                    1_GWF-(1,26649)  2.33390568E-03                     1_GWF-(1,9029)
        166          4         16      0.19785433                    1_GWF-(1,26622)  3.39067522E-03                     1_GWF-(1,9051)
        167          4         17      0.16789773                    1_GWF-(1,26588)  4.25435338E-03                     1_GWF-(1,9051)
        168          4         18      0.14841453                    1_GWF-(1,26543)  3.96571147E-03                     1_GWF-(1,9051)
        169          4         19      0.14722898                    1_GWF-(1,26588)  2.66372525E-03                     1_GWF-(1,9051)
        170          4         20     -0.18171742                    1_GWF-(1,26588)  1.48596995E-03                     1_GWF-(1,9051)
        171          4         21     -0.20431217                    1_GWF-(1,26543)  1.48982972E-03                     1_GWF-(1,9051)
        172          4         22     -0.17062741                    1_GWF-(1,26588)  2.21218371E-03                     1_GWF-(1,9051)
        173          4         23     -0.19948960                    1_GWF-(1,26486)  2.41996495E-03                     1_GWF-(1,9051)
        174          4         24     -0.20044309                    1_GWF-(1,26487)  1.60092997E-03                     1_GWF-(1,9051)
        175          4         25     -0.17913928                    1_GWF-(1,26486)  9.58251991E-04                    1_GWF-(1,10011)
        176          4         26     -0.16849647                    1_GWF-(1,26487)  1.28616350E-03                    1_GWF-(1,10010)
        177          4         27     -0.13182705                    1_GWF-(1,26420)  1.19844247E-03                    1_GWF-(1,15108)
        178          4         28 -9.83357021E-02                    1_GWF-(1,26487)  9.23450248E-04                    1_GWF-(1,14938)
        179          4         29  7.83893833E-02                    1_GWF-(1,26623) -9.87280364E-04                    1_GWF-(1,11531)
        180          4         30  8.84965606E-02                    1_GWF-(1,26420)  1.42873451E-03                    1_GWF-(1,10011)
        181          4         31      0.10096365                    1_GWF-(1,26543)  1.77383301E-03                    1_GWF-(1,10010)
        182          4         32  9.80982428E-02                    1_GWF-(1,26544)  1.63037925E-03                    1_GWF-(1,10010)
        183          4         33  9.01631393E-02                    1_GWF-(1,26421)  1.71545094E-03                    1_GWF-(1,15107)
        184          4         34  8.56984981E-02                    1_GWF-(1,26420)  1.21672951E-03                    1_GWF-(1,15108)
        185          4         35  9.70284431E-02                    1_GWF-(1,26422)  1.15883006E-03                    1_GWF-(1,10010)
        186          4         36  9.07208883E-02                    1_GWF-(1,26350)  1.21206716E-03                    1_GWF-(1,10010)
        187          4         37 -7.09121900E-02                    1_GWF-(1,26350)  1.15250345E-03                    1_GWF-(1,10010)
        188          4         38 -6.94551899E-02                    1_GWF-(1,26422)  1.50841873E-03                    1_GWF-(1,15107)
        189          4         39 -6.30267916E-02                    1_GWF-(1,26544)  1.48598643E-03                    1_GWF-(1,14938)
        190          4         40 -6.28036797E-02                    1_GWF-(1,26486)  2.07110043E-03                    1_GWF-(1,15107)
        191          4         41 -6.72125872E-02                    1_GWF-(1,26350)  1.22808229E-03                    1_GWF-(1,15108)
        192          4         42 -6.09958319E-02                    1_GWF-(1,26422)  1.00347410E-03                    1_GWF-(1,10843)
        193          4         43 -3.47040965E-02                    1_GWF-(1,26350)  9.53748265E-04                    1_GWF-(1,10843)
        194          4         44 -3.72961022E-02                    1_GWF-(1,26486)  9.01220360E-04                    1_GWF-(1,10843)
        195          4         45 -4.58584281E-02                    1_GWF-(1,26543)  7.56559199E-04                    1_GWF-(1,10843)
        196          4         46 -5.96803182E-02                    1_GWF-(1,26588)  8.27222999E-04                    1_GWF-(1,15109)
        197          4         47 -5.66445269E-02                    1_GWF-(1,21738)  7.85755542E-04                    1_GWF-(1,15108)
        198          4         48  6.87323309E-02                    1_GWF-(1,26672)  9.17427628E-04                    1_GWF-(1,15109)
        199          4         49 -8.13057911E-02                    1_GWF-(1,26672)  1.05714981E-03                    1_GWF-(1,15108)
        200          4         50 -7.56043549E-02                    1_GWF-(1,26673)  1.10528600E-03                    1_GWF-(1,11531)
        201          5          1  7.12088633E-02                    1_GWF-(1,26673)  9.69936853E-04                    1_GWF-(1,10843)
        202          5          2  7.05218168E-02                    1_GWF-(1,26672)  1.37805218E-03                    1_GWF-(1,15109)
        203          5          3 -6.57109625E-02                    1_GWF-(1,26672)  1.53003043E-03                    1_GWF-(1,15108)
        204          5          4  5.63718095E-02                    1_GWF-(1,21762)  1.06206245E-03                    1_GWF-(1,15109)
        205          5          5  4.23882016E-02                    1_GWF-(1,24899)  9.14027269E-04                    1_GWF-(1,10843)
        206          5          6  3.94343661E-02                    1_GWF-(1,21667)  9.91992886E-04                    1_GWF-(1,10843)
        207          5          7  3.12803617E-02                    1_GWF-(1,21542)  9.68584259E-04                    1_GWF-(1,10844)
        208          5          8 -3.06563576E-02                    1_GWF-(1,26586)  9.87173379E-04                    1_GWF-(1,10843)
        209          5          9  3.66552932E-02                    1_GWF-(1,26422)  1.11117451E-03                    1_GWF-(1,15108)
        210          5         10  3.32023313E-02                    1_GWF-(1,26350)  1.24970544E-03                    1_GWF-(1,15107)
        211          5         11  3.56742860E-02                    1_GWF-(1,26486)  8.87924828E-04                    1_GWF-(1,15109)
        212          5         12 -4.44283192E-02                    1_GWF-(1,26422)  1.14463487E-03                    1_GWF-(1,15109)
        213          5         13 -4.83478005E-02                    1_GWF-(1,26350)  9.22939589E-04                    1_GWF-(1,15109)
        214          5         14 -5.90515152E-02                    1_GWF-(1,26422)  9.80633862E-04                    1_GWF-(1,15107)
        215          5         15 -6.57287775E-02                    1_GWF-(1,26350)  1.04999636E-03                    1_GWF-(1,15109)
        216          5         16 -5.82229396E-02                    1_GWF-(1,26422)  8.92633392E-04                    1_GWF-(1,15108)
        217          5         17 -4.42258159E-02                    1_GWF-(1,26586)  8.39167457E-04                    1_GWF-(1,10011)
        218          5         18 -4.29360746E-02                    1_GWF-(1,26623)  1.11956848E-03                    1_GWF-(1,10010)
        219          5         19 -6.50598512E-02                    1_GWF-(1,26544)  1.40305018E-03                    1_GWF-(1,10010)
        220          5         20 -6.10512499E-02                    1_GWF-(1,26486)  1.26043651E-03                    1_GWF-(1,10010)
        221          5         21 -5.29534989E-02                    1_GWF-(1,26649)  8.83242967E-04                    1_GWF-(1,10010)
        222          5         22  6.42227785E-02                    1_GWF-(1,26588)  7.66604507E-04                    1_GWF-(1,10010)
        223          5         23  5.57093027E-02                    1_GWF-(1,26543)  9.01378881E-04                    1_GWF-(1,10010)
        224          5         24  7.56410032E-02                    1_GWF-(1,26623)  9.59409197E-04                    1_GWF-(1,10010)
        225          5         25  7.76927567E-02                    1_GWF-(1,26586)  7.44656540E-04                    1_GWF-(1,10010)
        226          5         26  6.39313916E-02                    1_GWF-(1,26543)  7.95925706E-04                     1_GWF-(1,9051)
        227          5         27  6.18565524E-02                    1_GWF-(1,26420)  9.99032596E-04                     1_GWF-(1,9051)
        228          5         28 -6.26682065E-02                    1_GWF-(1,26588)  9.02041927E-04                     1_GWF-(1,9051)
        229          5         29 -7.89420220E-02                    1_GWF-(1,26543)  7.77236565E-04                     1_GWF-(1,9051)
        230          5         30 -7.07889989E-02                    1_GWF-(1,26648)  9.43895142E-04                     1_GWF-(1,9051)
        231          5         31 -9.29879569E-02                    1_GWF-(1,26649)  1.32229409E-03                     1_GWF-(1,9051)
        232          5         32 -5.54117690E-02                    1_GWF-(1,26622)  1.51347868E-03                     1_GWF-(1,9051)
        233          5         33 -5.90582918E-02                    1_GWF-(1,26217)  1.37264676E-03                     1_GWF-(1,9051)
        234          5         34 -6.64670679E-02                    1_GWF-(1,26421)  1.13946701E-03                     1_GWF-(1,9051)
        235          5         35 -9.03368394E-02                    1_GWF-(1,26420)  1.01290490E-03                     1_GWF-(1,9051)
        236          5         36 -9.25653561E-02                    1_GWF-(1,26487)  9.77288104E-04                     1_GWF-(1,9051)
        237          5         37 -6.62154305E-02                    1_GWF-(1,26486)  8.88854257E-04                     1_GWF-(1,9051)
        238          5         38 -4.23403156E-02                    1_GWF-(1,26422)  7.76051237E-04                     1_GWF-(1,9052)
        239          5         39 -5.39101772E-02                    1_GWF-(1,26666)  7.71931688E-04                    1_GWF-(1,15109)
        240          5         40 -6.58947384E-02                    1_GWF-(1,26665)  6.38395353E-04                    1_GWF-(1,15107)
        241          5         41  4.54568873E-02                    1_GWF-(1,26665)  8.82578506E-04                    1_GWF-(1,15107)
        242          5         42 -4.05995764E-02                    1_GWF-(1,26665)  7.57375052E-04                     1_GWF-(1,9290)
        243          5         43  3.92555771E-02                    1_GWF-(1,26402)  8.24839860E-04                     1_GWF-(1,8949)
        244          5         44  5.53513112E-02                    1_GWF-(1,26217)  7.38988571E-04                     1_GWF-(1,9291)
        245          5         45  5.62784045E-02                    1_GWF-(1,26542) -8.84643088E-04                    1_GWF-(1,15109)
        246          5         46  5.49494814E-02                    1_GWF-(1,26543) -1.13605053E-03                    1_GWF-(1,15108)
        247          5         47  5.47474716E-02                    1_GWF-(1,26218) -8.12079538E-04                    1_GWF-(1,15107)
        248          5         48  4.86473161E-02                    1_GWF-(1,26217) -8.04231816E-04                    1_GWF-(1,15117)
        249          5         49 -4.68079295E-02                    1_GWF-(1,26623) -9.35933904E-04                    1_GWF-(1,15107)
        250          5         50 -5.17272072E-02                    1_GWF-(1,26586) -8.91628336E-04                    1_GWF-(1,14938)
        251          6          1 -3.17661079E-02                    1_GWF-(1,26522)  7.71997995E-04                     1_GWF-(1,9291)
        252          6          2 -3.55634585E-02                    1_GWF-(1,26482) -7.80174507E-04                    1_GWF-(1,15115)
        253          6          3 -3.82204889E-02                    1_GWF-(1,26217) -7.95105521E-04                    1_GWF-(1,15107)
        254          6          4 -4.28862214E-02                    1_GWF-(1,26218) -8.75839133E-04                    1_GWF-(1,15108)
        255          6          5 -4.24794697E-02                    1_GWF-(1,26348) -7.97639602E-04                    1_GWF-(1,15109)
        256          6          6 -4.42121981E-02                    1_GWF-(1,26218)  5.72568132E-04                     1_GWF-(1,9291)
        257          6          7 -3.71643198E-02                    1_GWF-(1,26217)  6.01866811E-04                     1_GWF-(1,9291)
        258          6          8 -2.41208631E-02                    1_GWF-(1,26218)  5.46628760E-04                     1_GWF-(1,8949)
        259          6          9  2.16928712E-02                    1_GWF-(1,24910)  4.16476266E-04                     1_GWF-(1,9291)
        260          6         10 -2.36480643E-02                    1_GWF-(1,26665)  3.66568840E-04                     1_GWF-(1,9029)
        261          6         11  3.06270476E-02                    1_GWF-(1,26665)  4.45751474E-04                     1_GWF-(1,9051)
        262          6         12  2.52361625E-02                    1_GWF-(1,26218)  4.54076377E-04                     1_GWF-(1,9051)
        263          6         13  3.01594852E-02                    1_GWF-(1,26422)  3.94091861E-04                     1_GWF-(1,9051)
        264          6         14  3.25540585E-02                    1_GWF-(1,26486)  3.65199534E-04                     1_GWF-(1,9051)
        265          6         15  3.99651169E-02                    1_GWF-(1,26487)  3.84897647E-04                     1_GWF-(1,9051)
        266          6         16  3.15708641E-02                    1_GWF-(1,26486)  4.33895877E-04                     1_GWF-(1,9051)
        267          6         17 -2.41652761E-02                    1_GWF-(1,26665)  4.81804800E-04                     1_GWF-(1,9051)
        268          6         18  1.85842757E-02                    1_GWF-(1,26665)  4.74854812E-04                     1_GWF-(1,9051)
        269          6         19  1.66090492E-02                    1_GWF-(1,26622)  3.52297177E-04                     1_GWF-(1,9051)
        270          6         20  2.73092753E-02                    1_GWF-(1,26649)  2.24504233E-04                    1_GWF-(1,10010)
        271          6         21 -2.45752476E-02                    1_GWF-(1,26543)  3.32063871E-04                    1_GWF-(1,10010)
        272          6         22 -2.56738008E-02                    1_GWF-(1,26588)  3.59403071E-04                    1_GWF-(1,10010)
        273          6         23 -2.19969436E-02                    1_GWF-(1,26543)  2.92780646E-04                    1_GWF-(1,10010)
        274          6         24 -1.97257124E-02                    1_GWF-(1,26542)  2.43248797E-04                    1_GWF-(1,10011)
        275          6         25 -1.81459515E-02                    1_GWF-(1,26623)  3.02806977E-04                    1_GWF-(1,10011)
        276          6         26 -1.88032842E-02                    1_GWF-(1,26586)  3.56582168E-04                    1_GWF-(1,10010)
        277          6         27 -1.39724488E-02                    1_GWF-(1,26623)  3.02269466E-04                     1_GWF-(1,9989)
        278          6         28  1.94937802E-02                    1_GWF-(1,26588)  2.09123663E-04                    1_GWF-(1,10010)
        279          6         29  1.78579594E-02                    1_GWF-(1,26543)  2.24762149E-04                    1_GWF-(1,10010)
        280          6         30  1.67920178E-02                    1_GWF-(1,26542)  3.24057018E-04                    1_GWF-(1,10010)
        281          6         31  1.92611837E-02                    1_GWF-(1,26486)  3.59579162E-04                    1_GWF-(1,10010)
        282          6         32  1.56178474E-02                    1_GWF-(1,26544)  2.94173759E-04                    1_GWF-(1,10010)
        283          6         33  1.24009557E-02                    1_GWF-(1,26422)  1.98990737E-04                    1_GWF-(1,10011)
        284          6         34  1.16177487E-02                    1_GWF-(1,26350)  1.72384094E-04                    1_GWF-(1,10011)
        285          6         35  1.28433048E-02                    1_GWF-(1,26422)  1.64329016E-04                    1_GWF-(1,10010)
        286          6         36  1.22826626E-02                    1_GWF-(1,26350)  1.58948991E-04                    1_GWF-(1,10010)
        287          6         37 -1.27495979E-02                    1_GWF-(1,26350)  1.20007451E-04                     1_GWF-(1,9817)
        288          6         38 -1.32608392E-02                    1_GWF-(1,26422)  1.40125703E-04                    1_GWF-(1,15107)
        289          6         39 -1.07357777E-02                    1_GWF-(1,26544)  1.51625152E-04                    1_GWF-(1,14938)
        290          6         40 -9.21202580E-03                    1_GWF-(1,26486)  2.24919353E-04                    1_GWF-(1,15107)
        291          6         41 -8.34176061E-03                    1_GWF-(1,26350)  1.42737948E-04                    1_GWF-(1,10842)
        292          6         42 -7.65552225E-03                    1_GWF-(1,26422)  1.64927906E-04                    1_GWF-(1,10843)
        293          6         43 -4.79684211E-03                    1_GWF-(1,21188)  1.83433697E-04                    1_GWF-(1,10844)
        294          6         44 -5.15218223E-03                    1_GWF-(1,21539)  2.02471540E-04                    1_GWF-(1,10843)
        295          6         45 -5.71484938E-03                    1_GWF-(1,21667)  1.77381931E-04                    1_GWF-(1,10843)
        296          6         46 -6.98801501E-03                    1_GWF-(1,26588)  1.52122575E-04                    1_GWF-(1,10843)
        297          6         47 -7.05790487E-03                    1_GWF-(1,26672)  1.44650503E-04                    1_GWF-(1,10843)
        298          6         48  1.04739163E-02                    1_GWF-(1,26672)  1.61260909E-04                    1_GWF-(1,10844)
        299          6         49 -9.87377789E-03                    1_GWF-(1,26672)  1.87993496E-04                    1_GWF-(1,10843)
        300          6         50 -1.03416802E-02                    1_GWF-(1,26673)  1.79037616E-04                    1_GWF-(1,10843)
        301          7          1  1.01005764E-02                    1_GWF-(1,26673)  1.65692372E-04                    1_GWF-(1,10843)
        302          7          2  9.51732272E-03                    1_GWF-(1,26672)  1.98088254E-04                    1_GWF-(1,15109)
        303          7          3 -9.91129399E-03                    1_GWF-(1,26672)  2.02574662E-04                    1_GWF-(1,15108)
        304          7          4  7.82181650E-03                    1_GWF-(1,21762)  1.50886347E-04                    1_GWF-(1,10843)
        305          7          5  6.05053643E-03                    1_GWF-(1,24900)  1.64979726E-04                    1_GWF-(1,10843)
        306          7          6  5.79719088E-03                    1_GWF-(1,21667)  1.75026528E-04                    1_GWF-(1,10843)
        307          7          7 -4.92696720E-03                    1_GWF-(1,26623)  1.57813081E-04                    1_GWF-(1,10844)
        308          7          8 -4.74372213E-03                    1_GWF-(1,26586)  1.43536244E-04                    1_GWF-(1,10843)
        309          7          9  4.95501279E-03                    1_GWF-(1,26422)  1.50742983E-04                    1_GWF-(1,15108)
        310          7         10  4.59104414E-03                    1_GWF-(1,26623)  1.35126044E-04                    1_GWF-(1,15107)
        311          7         11  5.51410376E-03                    1_GWF-(1,26486)  1.00706723E-04                    1_GWF-(1,10844)
        312          7         12 -6.84905782E-03                    1_GWF-(1,26422)  1.16872833E-04                    1_GWF-(1,15109)
        313          7         13  8.99532604E-03                    1_GWF-(1,26422)  9.96795787E-05                     1_GWF-(1,9817)
        314          7         14  9.33761939E-03                    1_GWF-(1,26350)  1.23001119E-04                    1_GWF-(1,10010)
        315          7         15  1.02268373E-02                    1_GWF-(1,26422)  1.22035954E-04                    1_GWF-(1,10010)
        316          7         16 -7.94680727E-03                    1_GWF-(1,26422)  1.17748764E-04                    1_GWF-(1,10011)
        317          7         17 -8.15243955E-03                    1_GWF-(1,26420)  1.19718540E-04                    1_GWF-(1,10010)
        318          7         18 -6.88210251E-03                    1_GWF-(1,26487)  1.72737689E-04                    1_GWF-(1,10010)
        319          7         19 -1.22810092E-02                    1_GWF-(1,26486)  2.21650627E-04                    1_GWF-(1,10010)
        320          7         20 -1.48181275E-02                    1_GWF-(1,26487)  2.29121206E-04                    1_GWF-(1,10010)
        321          7         21 -1.43778479E-02                    1_GWF-(1,26486) -1.82458653E-04                    1_GWF-(1,15109)
        322          7         22  9.98001078E-03                    1_GWF-(1,26486) -1.11917090E-04                    1_GWF-(1,15022)
        323          7         23  8.11457225E-03                    1_GWF-(1,26649)  1.45224310E-04                    1_GWF-(1,10010)
        324          7         24  7.03459314E-03                    1_GWF-(1,26620)  1.73224123E-04                     1_GWF-(1,9989)
        325          7         25  1.01463426E-02                    1_GWF-(1,26649)  1.51158685E-04                    1_GWF-(1,10011)
        326          7         26  1.09274932E-02                    1_GWF-(1,26622)  1.27776437E-04                    1_GWF-(1,10010)
        327          7         27 -1.08314581E-02                    1_GWF-(1,26622)  1.23532825E-04                    1_GWF-(1,10010)
        328          7         28 -1.07226404E-02                    1_GWF-(1,26623)  1.42665043E-04                    1_GWF-(1,10010)
        329          7         29  8.12025786E-03                    1_GWF-(1,26623)  1.47617018E-04                    1_GWF-(1,10010)
        330          7         30  6.81580385E-03                    1_GWF-(1,25335)  1.22035749E-04                    1_GWF-(1,14938)
        331          7         31  6.60139251E-03                    1_GWF-(1,25323)  1.67491929E-04                     1_GWF-(1,9051)
        332          7         32 -7.76137093E-03                    1_GWF-(1,26623)  1.95554310E-04                     1_GWF-(1,9051)
        333          7         33 -7.35124316E-03                    1_GWF-(1,26588)  1.80173372E-04                     1_GWF-(1,9051)
        334          7         34  8.62887352E-03                    1_GWF-(1,26665)  1.64001635E-04                     1_GWF-(1,9051)
        335          7         35 -9.55137855E-03                    1_GWF-(1,26665)  1.63480485E-04                     1_GWF-(1,9051)
        336          7         36  9.30792005E-03                    1_GWF-(1,26665)  2.15983328E-04                    1_GWF-(1,15107)
        337          7         37 -6.59187857E-03                    1_GWF-(1,26218)  1.41993888E-04                     1_GWF-(1,9051)
        338          7         38 -7.22114683E-03                    1_GWF-(1,26217)  1.38153923E-04                    1_GWF-(1,15110)
        339          7         39  7.89835782E-03                    1_GWF-(1,26217)  1.20143868E-04                    1_GWF-(1,15109)
        340          7         40  9.12368117E-03                    1_GWF-(1,26218)  1.40370418E-04                    1_GWF-(1,15107)
        341          7         41  6.71317815E-03                    1_GWF-(1,26543)  1.63553952E-04                    1_GWF-(1,15107)
        342          7         42  9.13011343E-03                    1_GWF-(1,26588)  1.33529095E-04                     1_GWF-(1,9291)
        343          7         43  7.69017350E-03                    1_GWF-(1,26543)  1.47586033E-04                     1_GWF-(1,8949)
        344          7         44  8.52914434E-03                    1_GWF-(1,26588)  1.43511446E-04                     1_GWF-(1,9291)
        345          7         45  8.33256364E-03                    1_GWF-(1,26589) -1.51856555E-04                    1_GWF-(1,15109)
        346          7         46  7.63682742E-03                    1_GWF-(1,26588) -1.70317603E-04                    1_GWF-(1,15108)
        347          7         47  7.55928579E-03                    1_GWF-(1,26218) -1.52656000E-04                    1_GWF-(1,15107)
        348          7         48  7.26018048E-03                    1_GWF-(1,26217)  1.44805240E-04                     1_GWF-(1,8949)
        349          7         49 -6.80812339E-03                    1_GWF-(1,26623) -1.85991015E-04                    1_GWF-(1,15107)
        350          7         50 -7.46377641E-03                    1_GWF-(1,26586) -1.74679447E-04                    1_GWF-(1,14938)
        351          8          1 -4.66287278E-03                    1_GWF-(1,26384) -1.73681062E-04                    1_GWF-(1,15107)
        352          8          2  4.53219125E-03                    1_GWF-(1,21652) -1.28442021E-04                    1_GWF-(1,15115)
        353          8          3 -5.87613768E-03                    1_GWF-(1,26217) -1.52209345E-04                    1_GWF-(1,15107)
        354          8          4 -6.54260069E-03                    1_GWF-(1,26218) -1.30008633E-04                    1_GWF-(1,15022)
        355          8          5 -6.13120381E-03                    1_GWF-(1,26348) -1.15103636E-04                    1_GWF-(1,15107)
        356          8          6 -6.03524285E-03                    1_GWF-(1,26218)  9.12129079E-05                     1_GWF-(1,9290)
        357          8          7 -4.89831709E-03                    1_GWF-(1,26217)  1.10292506E-04                     1_GWF-(1,9291)
        358          8          8 -3.99304820E-03                    1_GWF-(1,26487)  9.10170239E-05                     1_GWF-(1,8949)
        359          8          9 -5.05672392E-03                    1_GWF-(1,26588)  8.83960200E-05                    1_GWF-(1,15107)
        360          8         10 -3.72118226E-03                    1_GWF-(1,26543)  6.62547764E-05                    1_GWF-(1,15022)
        361          8         11  3.21361335E-03                    1_GWF-(1,26543)  6.65493022E-05                     1_GWF-(1,9051)
        362          8         12  5.95259106E-03                    1_GWF-(1,26218)  7.24254462E-05                     1_GWF-(1,9051)
        363          8         13  5.27924762E-03                    1_GWF-(1,26217)  6.78209850E-05                     1_GWF-(1,9051)
        364          8         14  3.60535351E-03                    1_GWF-(1,26218)  9.92477591E-05                    1_GWF-(1,15107)
        365          8         15  3.44633368E-03                    1_GWF-(1,26487)  6.52111735E-05                     1_GWF-(1,9051)
        366          8         16  4.11839826E-03                    1_GWF-(1,26665)  6.05102838E-05                     1_GWF-(1,9051)
        367          8         17 -3.37051996E-03                    1_GWF-(1,26665)  6.67678532E-05                    1_GWF-(1,15109)
        368          8         18  2.86660488E-03                    1_GWF-(1,26588)  7.28609931E-05                    1_GWF-(1,15109)
        369          8         19  2.79059556E-03                    1_GWF-(1,26623)  6.63178387E-05                    1_GWF-(1,15107)
        370          8         20 -2.32275965E-03                    1_GWF-(1,26218)  5.42208456E-05                    1_GWF-(1,15109)
        371          8         21 -3.17859088E-03                    1_GWF-(1,26586)  7.53656399E-05                    1_GWF-(1,15107)
        372          8         22 -3.73888106E-03                    1_GWF-(1,26623)  6.27301913E-05                    1_GWF-(1,10010)
        373          8         23 -3.70763562E-03                    1_GWF-(1,26622)  4.66734114E-05                    1_GWF-(1,10010)
        374          8         24 -3.90571114E-03                    1_GWF-(1,26649)  4.10675984E-05                    1_GWF-(1,10010)
        375          8         25 -3.64252314E-03                    1_GWF-(1,26622)  5.04208235E-05                    1_GWF-(1,10011)
        376          8         26 -2.89057734E-03                    1_GWF-(1,26649)  5.56859163E-05                     1_GWF-(1,9989)
        377          8         27  2.14370781E-03                    1_GWF-(1,26649)  4.15887630E-05                     1_GWF-(1,9989)
        378          8         28  2.13947220E-03                    1_GWF-(1,26543)  3.98805003E-05                    1_GWF-(1,15107)
        379          8         29  2.43926270E-03                    1_GWF-(1,26544) -3.85584987E-05                    1_GWF-(1,15107)
        380          8         30  4.41558822E-03                    1_GWF-(1,26486)  5.27103017E-05                    1_GWF-(1,10010)
        381          8         31  4.16361067E-03                    1_GWF-(1,26487)  5.32811800E-05                    1_GWF-(1,10010)
        382          8         32  3.07166703E-03                    1_GWF-(1,26486)  4.05344653E-05                    1_GWF-(1,10010)
        383          8         33  2.15856087E-03                    1_GWF-(1,26421)  2.97587033E-05                    1_GWF-(1,15107)
        384          8         34  2.01184992E-03                    1_GWF-(1,26420)  2.32192705E-05                    1_GWF-(1,10011)
        385          8         35  1.91913369E-03                    1_GWF-(1,26422)  2.37471232E-05                    1_GWF-(1,15107)
        386          8         36 -2.33001919E-03                    1_GWF-(1,26422)  2.48681616E-05                     1_GWF-(1,9988)
        387          8         37 -2.46375358E-03                    1_GWF-(1,26350)  2.26978821E-05                    1_GWF-(1,14938)
        388          8         38 -2.54070615E-03                    1_GWF-(1,26422)  3.83415625E-05                    1_GWF-(1,15107)
        389          8         39 -1.90404475E-03                    1_GWF-(1,26350)  3.68256931E-05                    1_GWF-(1,14938)
        390          8         40 -1.54738229E-03                    1_GWF-(1,26486)  6.10475693E-05                    1_GWF-(1,15107)
        391          8         41 -1.19341173E-03                    1_GWF-(1,26350)  3.63258453E-05                    1_GWF-(1,14938)
        392          8         42 -1.09077205E-03                    1_GWF-(1,26422)  4.48605940E-05                    1_GWF-(1,15107)
        393          8         43  7.96197473E-04                    1_GWF-(1,22908)  3.00571834E-05                    1_GWF-(1,10844)
        394          8         44  9.55101696E-04                    1_GWF-(1,26350)  3.78622931E-05                    1_GWF-(1,15107)
        395          8         45  9.21596685E-04                    1_GWF-(1,23282)  3.13312529E-05                    1_GWF-(1,10843)
        396          8         46 -8.55633061E-04                    1_GWF-(1,26673)  3.98706900E-05                    1_GWF-(1,15107)
        397          8         47 -1.25138092E-03                    1_GWF-(1,26672)  3.49481242E-05                    1_GWF-(1,15108)
        398          8         48  1.72311432E-03                    1_GWF-(1,26672)  3.91664132E-05                    1_GWF-(1,15109)
        399          8         49 -1.48349275E-03                    1_GWF-(1,26672)  3.21919872E-05                    1_GWF-(1,10843)
        400          8         50 -1.63164941E-03                    1_GWF-(1,26673)  3.19378041E-05                    1_GWF-(1,10843)
        401          9          1  1.62397289E-03                    1_GWF-(1,26673)  3.26939255E-05                    1_GWF-(1,15107)
        402          9          2  1.45897740E-03                    1_GWF-(1,26672)  4.38006913E-05                    1_GWF-(1,15109)
        403          9          3 -1.65205579E-03                    1_GWF-(1,26672)  4.45302248E-05                    1_GWF-(1,15108)
        404          9          4  1.20082004E-03                    1_GWF-(1,26672)  3.27584986E-05                    1_GWF-(1,15109)
        405          9          5  8.47941063E-04                    1_GWF-(1,24900)  2.90711971E-05                    1_GWF-(1,10843)
        406          9          6 -8.62281459E-04                    1_GWF-(1,23282)  3.12939833E-05                    1_GWF-(1,10843)
        407          9          7 -9.05248633E-04                    1_GWF-(1,26543)  2.60002384E-05                    1_GWF-(1,10842)
        408          9          8 -8.08026941E-04                    1_GWF-(1,26586)  3.41307092E-05                    1_GWF-(1,15109)
        409          9          9 -7.57546486E-04                    1_GWF-(1,26648)  3.29126517E-05                    1_GWF-(1,15108)
        410          9         10  8.11522523E-04                    1_GWF-(1,26623)  3.04952433E-05                    1_GWF-(1,15107)
        411          9         11  1.30079763E-03                    1_GWF-(1,26486)  1.95811506E-05                    1_GWF-(1,14938)
        412          9         12  1.56010916E-03                    1_GWF-(1,26544)  2.34126124E-05                    1_GWF-(1,15109)
        413          9         13  1.99835295E-03                    1_GWF-(1,26486)  1.58899784E-05                    1_GWF-(1,15108)
        414          9         14  2.01761907E-03                    1_GWF-(1,26487)  1.81530804E-05                    1_GWF-(1,10010)
        415          9         15  1.77608090E-03                    1_GWF-(1,26486)  1.67135457E-05                    1_GWF-(1,10011)
        416          9         16  1.31171243E-03                    1_GWF-(1,26487)  1.55459912E-05                    1_GWF-(1,10011)
        417          9         17 -1.44895520E-03                    1_GWF-(1,26422)  1.52462678E-05                    1_GWF-(1,10011)
        418          9         18 -1.56297459E-03                    1_GWF-(1,26350)  2.18863645E-05                    1_GWF-(1,10010)
        419          9         19 -1.84140445E-03                    1_GWF-(1,26588)  3.18202464E-05                    1_GWF-(1,10010)
        420          9         20 -1.61443942E-03                    1_GWF-(1,26543)  3.68913784E-05                    1_GWF-(1,10010)
        421          9         21 -1.92680494E-03                    1_GWF-(1,26588)  2.99373341E-05                    1_GWF-(1,10010)
        422          9         22 -2.32041360E-03                    1_GWF-(1,26422)  1.73672140E-05                    1_GWF-(1,10010)
        423          9         23 -2.47940265E-03                    1_GWF-(1,26350)  1.76659238E-05                    1_GWF-(1,10011)
        424          9         24  1.65330464E-03                    1_GWF-(1,26420)  2.83691994E-05                    1_GWF-(1,10011)
        425          9         25 -1.59579703E-03                    1_GWF-(1,26649)  2.97664944E-05                    1_GWF-(1,10011)
        426          9         26  1.91055145E-03                    1_GWF-(1,26649)  2.47378353E-05                    1_GWF-(1,10010)
        427          9         27 -2.15195177E-03                    1_GWF-(1,26649)  2.37549811E-05                    1_GWF-(1,10010)
        428          9         28  2.00266193E-03                    1_GWF-(1,26486)  2.73664448E-05                    1_GWF-(1,10010)
        429          9         29  1.44093745E-03                    1_GWF-(1,26544)  3.18279718E-05                    1_GWF-(1,10010)
        430          9         30  1.38083609E-03                    1_GWF-(1,26623)  4.03271230E-05                    1_GWF-(1,15107)
        431          9         31  1.02629174E-03                    1_GWF-(1,25328)  2.72304065E-05                    1_GWF-(1,15022)
        432          9         32  8.84637106E-04                    1_GWF-(1,25237)  4.22145201E-05                    1_GWF-(1,15107)
        433          9         33 -9.56397710E-04                    1_GWF-(1,26218)  3.49066681E-05                    1_GWF-(1,14938)
        434          9         34 -1.22823236E-03                    1_GWF-(1,26348)  3.04940672E-05                    1_GWF-(1,15107)
        435          9         35 -1.48435279E-03                    1_GWF-(1,26218)  2.55093857E-05                    1_GWF-(1,15022)
        436          9         36 -1.45903028E-03                    1_GWF-(1,26217)  4.40105521E-05                    1_GWF-(1,15107)
        437          9         37 -1.31220517E-03                    1_GWF-(1,26218)  2.58297578E-05                     1_GWF-(1,9052)
        438          9         38 -1.43194490E-03                    1_GWF-(1,26217)  2.23787652E-05                     1_GWF-(1,9051)
        439          9         39 -1.33415695E-03                    1_GWF-(1,26218)  1.55300932E-05                     1_GWF-(1,9292)
        440          9         40  1.36236781E-03                    1_GWF-(1,26218)  1.76812015E-05                    1_GWF-(1,15022)
        441          9         41 -9.82768262E-04                    1_GWF-(1,26665)  2.98211594E-05                    1_GWF-(1,15107)
        442          9         42  1.30234113E-03                    1_GWF-(1,26674)  2.45250679E-05                     1_GWF-(1,8952)
        443          9         43 -1.46941401E-03                    1_GWF-(1,26665)  3.69987075E-05                     1_GWF-(1,9291)
        444          9         44  1.67838664E-03                    1_GWF-(1,26665)  2.46131863E-05                     1_GWF-(1,9292)
        445          9         45  1.21184136E-03                    1_GWF-(1,26666) -2.84833677E-05                    1_GWF-(1,15109)
        446          9         46  1.03873336E-03                    1_GWF-(1,26665) -2.99099649E-05                    1_GWF-(1,15022)
        447          9         47  1.27475883E-03                    1_GWF-(1,26218) -3.48641755E-05                    1_GWF-(1,15107)
        448          9         48  1.29747289E-03                    1_GWF-(1,26217)  4.21172999E-05                     1_GWF-(1,9291)
        449          9         49  8.21928465E-04                    1_GWF-(1,26218) -4.42696713E-05                    1_GWF-(1,15107)
        450          9         50 -9.69381176E-04                    1_GWF-(1,26586)  5.24095199E-05                     1_GWF-(1,9291)
        451         10          1 -7.68418957E-04                    1_GWF-(1,26384) -4.20693089E-05                    1_GWF-(1,15107)
        452         10          2  7.34526700E-04                    1_GWF-(1,21652)  4.66788016E-05                     1_GWF-(1,9291)
        453         10          3 -1.02849998E-03                    1_GWF-(1,26217) -3.47353357E-05                    1_GWF-(1,15107)
        454         10          4 -1.11502648E-03                    1_GWF-(1,26218)  3.76593399E-05                     1_GWF-(1,9291)
        455         10          5 -9.64251534E-04                    1_GWF-(1,26348)  2.80795898E-05                     1_GWF-(1,9292)
        456         10          6 -8.35171902E-04                    1_GWF-(1,26218)  3.18616545E-05                     1_GWF-(1,9291)
        457         10          7 -1.03435647E-03                    1_GWF-(1,26665)  1.82899300E-05                     1_GWF-(1,8952)
        458         10          8  9.25589746E-04                    1_GWF-(1,26665)  1.52915073E-05                     1_GWF-(1,8949)
        459         10          9 -7.96905112E-04                    1_GWF-(1,26674)  2.14362194E-05                     1_GWF-(1,9291)
        460         10         10  5.34391919E-04                    1_GWF-(1,26665)  1.87679203E-05                     1_GWF-(1,9292)
        461         10         11  5.17990783E-04                    1_GWF-(1,26217)  2.20287473E-05                     1_GWF-(1,9291)
        462         10         12  1.00243821E-03                    1_GWF-(1,26218)  1.30871600E-05                     1_GWF-(1,9052)
        463         10         13  8.52337339E-04                    1_GWF-(1,26217)  1.33502716E-05                     1_GWF-(1,9051)
        464         10         14  5.88082301E-04                    1_GWF-(1,26487)  1.38658076E-05                    1_GWF-(1,15107)
        465         10         15  8.04832913E-04                    1_GWF-(1,26486)  1.06548556E-05                     1_GWF-(1,9051)
        466         10         16  8.69653529E-04                    1_GWF-(1,26487)  1.01237164E-05                     1_GWF-(1,9051)
        467         10         17  6.38199021E-04                    1_GWF-(1,26486)  9.33974107E-06                     1_GWF-(1,9052)
        468         10         18  4.89567830E-04                    1_GWF-(1,26588)  1.00209820E-05                    1_GWF-(1,15109)
        469         10         19 -3.35408094E-04                    1_GWF-(1,26217)  1.31280112E-05                    1_GWF-(1,15107)
        470         10         20  3.66553290E-04                    1_GWF-(1,26649)  1.01676535E-05                    1_GWF-(1,14938)
        471         10         21 -4.39930814E-04                    1_GWF-(1,26588)  1.61375962E-05                    1_GWF-(1,15107)
        472         10         22 -4.83275013E-04                    1_GWF-(1,26487)  1.17696223E-05                    1_GWF-(1,10010)
        473         10         23 -6.59504761E-04                    1_GWF-(1,26649)  1.06028824E-05                     1_GWF-(1,9291)
        474         10         24 -7.86883997E-04                    1_GWF-(1,26487)  7.20907361E-06                    1_GWF-(1,10010)
        475         10         25 -6.08991352E-04                    1_GWF-(1,26623)  8.47732497E-06                    1_GWF-(1,10011)
        476         10         26 -4.34955242E-04                    1_GWF-(1,26586)  1.45383446E-05                     1_GWF-(1,9291)
        477         10         27  3.44301973E-04                    1_GWF-(1,26586) -1.55974667E-05                     1_GWF-(1,9291)
        478         10         28  4.31296121E-04                    1_GWF-(1,26543)  1.56468441E-05                     1_GWF-(1,9291)
        479         10         29  4.54255337E-04                    1_GWF-(1,26420) -1.14679975E-05                     1_GWF-(1,9291)
        480         10         30  5.02500710E-04                    1_GWF-(1,26543)  8.90872024E-06                    1_GWF-(1,10010)
        481         10         31  4.80288911E-04                    1_GWF-(1,26588)  8.84452368E-06                    1_GWF-(1,10010)
        482         10         32  3.12740413E-04                    1_GWF-(1,26649) -1.44112221E-05                     1_GWF-(1,9291)
        483         10         33  2.74824251E-04                    1_GWF-(1,26588)  1.16427831E-05                     1_GWF-(1,9291)
        484         10         34  2.57456416E-04                    1_GWF-(1,26350) -1.22150676E-05                     1_GWF-(1,9291)
        485         10         35 -2.57154145E-04                    1_GWF-(1,26350)  9.83201503E-06                     1_GWF-(1,9291)
        486         10         36 -4.12080185E-04                    1_GWF-(1,26422)  4.39708173E-06                     1_GWF-(1,9988)
        487         10         37 -4.47989694E-04                    1_GWF-(1,26350) -3.79939490E-06                     1_GWF-(1,9291)
        488         10         38 -4.57900151E-04                    1_GWF-(1,26422)  1.00379453E-05                     1_GWF-(1,9291)
        489         10         39 -3.39876209E-04                    1_GWF-(1,26350) -1.08584267E-05                     1_GWF-(1,9291)
        490         10         40 -2.68344474E-04                    1_GWF-(1,26486)  1.52469801E-05                     1_GWF-(1,9291)
        491         10         41 -1.72235089E-04                    1_GWF-(1,26350) -1.68358717E-05                     1_GWF-(1,9291)
        492         10         42 -1.57773848E-04                    1_GWF-(1,26422)  1.91260437E-05                     1_GWF-(1,9291)
        493         10         43  1.55165159E-04                    1_GWF-(1,22908) -1.73617275E-05                     1_GWF-(1,9291)
        494         10         44  1.90090425E-04                    1_GWF-(1,26350)  2.11748214E-05                     1_GWF-(1,9291)
        495         10         45  1.67966093E-04                    1_GWF-(1,26422) -1.68705736E-05                     1_GWF-(1,9291)
        496         10         46 -1.51204561E-04                    1_GWF-(1,26673)  2.10193731E-05                     1_GWF-(1,9291)
        497         10         47 -2.21814142E-04                    1_GWF-(1,26672) -1.64593987E-05                     1_GWF-(1,9291)
        498         10         48  2.94687276E-04                    1_GWF-(1,26672)  1.77440289E-05                     1_GWF-(1,9291)
        499         10         49 -2.37555930E-04                    1_GWF-(1,26672)  1.20008812E-05                     1_GWF-(1,9292)
        500         10         50 -2.71954854E-04                    1_GWF-(1,26673)  1.41834632E-05                     1_GWF-(1,9291)
        501         11          1  2.74341971E-04                    1_GWF-(1,26673)  9.33184240E-06                     1_GWF-(1,9292)
        502         11          2  2.37995782E-04                    1_GWF-(1,26672)  1.05429259E-05                     1_GWF-(1,9291)
        503         11          3 -2.86232613E-04                    1_GWF-(1,26672)  7.73884486E-06                    1_GWF-(1,15107)
        504         11          4  1.97181736E-04                    1_GWF-(1,26672)  7.12810562E-06                     1_GWF-(1,9291)
        505         11          5 -1.85245425E-04                    1_GWF-(1,26648)  5.48453766E-06                    1_GWF-(1,10845)
        506         11          6 -2.37042733E-04                    1_GWF-(1,26588)  5.94953573E-06                    1_GWF-(1,10843)
        507         11          7 -2.48428713E-04                    1_GWF-(1,26543)  5.01037048E-06                    1_GWF-(1,10843)
        508         11          8 -2.36633671E-04                    1_GWF-(1,26623)  4.29959353E-06                    1_GWF-(1,10842)
        509         11          9 -1.61699646E-04                    1_GWF-(1,26486)  5.28380735E-06                    1_GWF-(1,15109)
        510         11         10  1.68138491E-04                    1_GWF-(1,26586)  4.12823049E-06                    1_GWF-(1,15108)
        511         11         11  1.68281916E-04                    1_GWF-(1,26623)  2.81837423E-06                    1_GWF-(1,10843)
        512         11         12  2.14493809E-04                    1_GWF-(1,26486)  4.12404079E-06                     1_GWF-(1,9291)
        513         11         13  2.20914431E-04                    1_GWF-(1,26350) -4.82347612E-06                     1_GWF-(1,9291)
        514         11         14  2.60073119E-04                    1_GWF-(1,26422) -5.38707408E-06                     1_GWF-(1,9292)
        515         11         15  2.56454829E-04                    1_GWF-(1,26350) -6.54100298E-06                     1_GWF-(1,9291)
        516         11         16  2.69162829E-04                    1_GWF-(1,26486)  3.63554624E-06                     1_GWF-(1,9291)
        517         11         17  2.38369865E-04                    1_GWF-(1,26622)  2.67425606E-06                     1_GWF-(1,9051)
        518         11         18 -2.49017122E-04                    1_GWF-(1,26622) -5.90859660E-06                     1_GWF-(1,9291)
        519         11         19 -2.64392867E-04                    1_GWF-(1,26350) -6.20773363E-06                     1_GWF-(1,9292)
        520         11         20 -3.28787462E-04                    1_GWF-(1,26422) -7.30983688E-06                     1_GWF-(1,9291)
        521         11         21 -4.09572408E-04                    1_GWF-(1,26420)  5.95282569E-06                    1_GWF-(1,10010)
        522         11         22 -4.49857302E-04                    1_GWF-(1,26422) -5.05464605E-06                    1_GWF-(1,15107)
        523         11         23 -3.72136292E-04                    1_GWF-(1,26420) -6.42402119E-06                     1_GWF-(1,9291)
        524         11         24 -3.61454204E-04                    1_GWF-(1,26543)  8.76907282E-06                     1_GWF-(1,9291)
        525         11         25 -3.70986379E-04                    1_GWF-(1,26588) -6.75480685E-06                     1_GWF-(1,9291)
        526         11         26  4.38698745E-04                    1_GWF-(1,26588)  4.70896857E-06                    1_GWF-(1,10010)
        527         11         27  3.21445214E-04                    1_GWF-(1,26589)  4.32168229E-06                    1_GWF-(1,10010)
        528         11         28  3.33389543E-04                    1_GWF-(1,26486) -6.58061721E-06                     1_GWF-(1,9291)
[...]
        691         14         41 -1.00896982E-05                    1_GWF-(1,26420) -4.03913704E-07                    1_GWF-(1,15107)
        692         14         42 -7.01940786E-06                    1_GWF-(1,26588)  6.26919617E-07                    1_GWF-(1,15107)
        693         14         43 -6.28732474E-06                    1_GWF-(1,26648) -4.64287551E-07                    1_GWF-(1,15107)
        694         14         44 -8.32379486E-06                    1_GWF-(1,26649)  4.77870749E-07                    1_GWF-(1,15107)
        695         14         45 -7.74876717E-06                    1_GWF-(1,26648)  2.45264167E-07                    1_GWF-(1,10843)
        696         14         46 -8.96089827E-06                    1_GWF-(1,26649)  2.10220805E-07                    1_GWF-(1,10843)
        697         14         47  1.16722351E-05                    1_GWF-(1,26649)  4.87208475E-07                    1_GWF-(1,15107)
        698         14         48  1.14679280E-05                    1_GWF-(1,26622)  3.08608629E-07                    1_GWF-(1,14938)
        699         14         49  9.40909314E-06                    1_GWF-(1,26623)  2.21396496E-07                    1_GWF-(1,15107)
        700         14         50 -7.56307536E-06                    1_GWF-(1,26672)  2.12142830E-07                    1_GWF-(1,10843)
        701         15          1  1.06425961E-05                    1_GWF-(1,26672)  2.18438851E-07                    1_GWF-(1,14938)
        702         15          2 -1.04810356E-05                    1_GWF-(1,26672)  2.64084508E-07                    1_GWF-(1,15107)
        703         15          3 -9.20724300E-06                    1_GWF-(1,26622)  2.61744180E-07                    1_GWF-(1,15109)
        704         15          4 -1.07595597E-05                    1_GWF-(1,26649)  2.17427971E-07                    1_GWF-(1,15109)
        705         15          5 -9.70946683E-06                    1_GWF-(1,26622)  2.09707562E-07                    1_GWF-(1,10843)
        706         15          6  6.75674318E-06                    1_GWF-(1,26648)  2.10875416E-07                    1_GWF-(1,10845)
        707         15          7  6.39966295E-06                    1_GWF-(1,26649)  1.74906189E-07                    1_GWF-(1,10843)
        708         15          8 -6.01327933E-06                    1_GWF-(1,26588)  1.63691671E-07                    1_GWF-(1,15115)
        709         15          9 -4.95307349E-06                    1_GWF-(1,26420)  1.49336760E-07                    1_GWF-(1,15108)
        710         15         10  7.66912482E-06                    1_GWF-(1,26420)  1.57762801E-07                    1_GWF-(1,15107)
        711         15         11  1.01721930E-05                    1_GWF-(1,26487)  9.13122369E-08                    1_GWF-(1,10843)
        712         15         12  1.18986125E-05                    1_GWF-(1,26486)  1.20029602E-07                    1_GWF-(1,26625)
        713         15         13  1.00224281E-05                    1_GWF-(1,26544)  1.25832892E-07                    1_GWF-(1,15109)
        714         15         14  9.33799294E-06                    1_GWF-(1,26486)  1.35943998E-07                     1_GWF-(1,9988)
        715         15         15  7.57880858E-06                    1_GWF-(1,26350)  1.40929251E-07                    1_GWF-(1,26625)
        716         15         16  9.45102607E-06                    1_GWF-(1,26422) -1.13875447E-07                    1_GWF-(1,26625)
        717         15         17  9.42293188E-06                    1_GWF-(1,26350)  1.05059970E-07                    1_GWF-(1,15107)
        718         15         18 -1.18629776E-05                    1_GWF-(1,26350)  1.38877415E-07                    1_GWF-(1,10010)
        719         15         19 -1.20000804E-05                    1_GWF-(1,26422)  2.08925068E-07                    1_GWF-(1,10010)
        720         15         20 -1.01615016E-05                    1_GWF-(1,26544)  2.26780239E-07                    1_GWF-(1,10011)
        721         15         21 -1.03177306E-05                    1_GWF-(1,26543)  1.90778088E-07                    1_GWF-(1,10010)
        722         15         22 -1.18410757E-05                    1_GWF-(1,26420) -1.58604904E-07                    1_GWF-(1,15022)
        723         15         23 -1.29809421E-05                    1_GWF-(1,26589)  1.32715562E-07                     1_GWF-(1,9988)
        724         15         24 -1.67335907E-05                    1_GWF-(1,26588)  1.64861929E-07                    1_GWF-(1,10011)
        725         15         25  9.38271341E-06                    1_GWF-(1,26588)  1.75271623E-07                     1_GWF-(1,9989)
        726         15         26  1.14244722E-05                    1_GWF-(1,26586)  1.58157204E-07                    1_GWF-(1,10011)
        727         15         27  7.70077426E-06                    1_GWF-(1,26623)  2.31310397E-07                    1_GWF-(1,15107)
        728         15         28 -1.02470232E-05                    1_GWF-(1,26623)  2.10486750E-07                    1_GWF-(1,10010)
        729         15         29 -1.02986527E-05                    1_GWF-(1,26665)  1.92631723E-07                    1_GWF-(1,10011)
        730         15         30  1.29758942E-05                    1_GWF-(1,26665)  1.77077706E-07                    1_GWF-(1,15109)
        731         15         31  1.13223338E-05                    1_GWF-(1,26666)  1.80885502E-07                    1_GWF-(1,15022)
        732         15         32  8.05236784E-06                    1_GWF-(1,26665)  3.29721035E-07                    1_GWF-(1,15107)
        733         15         33  1.03509141E-05                    1_GWF-(1,26649)  2.09327222E-07                    1_GWF-(1,14938)
        734         15         34  1.03104548E-05                    1_GWF-(1,26622)  2.04668648E-07                    1_GWF-(1,15110)
        735         15         35  9.90362538E-06                    1_GWF-(1,26649)  1.52367991E-07                     1_GWF-(1,9051)
        736         15         36 -9.51033171E-06                    1_GWF-(1,26623)  1.66296563E-07                    1_GWF-(1,15022)
        737         15         37 -7.76866388E-06                    1_GWF-(1,26622)  2.60652336E-07                    1_GWF-(1,15107)
        738         15         38 -8.03438497E-06                    1_GWF-(1,26588)  1.80423958E-07                     1_GWF-(1,9051)
        739         15         39 -7.56080743E-06                    1_GWF-(1,26586)  1.80123234E-07                     1_GWF-(1,9292)
        740         15         40  6.74192670E-06                    1_GWF-(1,26217)  2.50805881E-07                     1_GWF-(1,9291)
        741         15         41  9.61044050E-06                    1_GWF-(1,26218)  2.60724847E-07                    1_GWF-(1,15107)
        742         15         42 -8.09664514E-06                    1_GWF-(1,26487)  2.47888866E-07                     1_GWF-(1,9291)
        743         15         43 -9.35764169E-06                    1_GWF-(1,26486)  1.73015129E-07                     1_GWF-(1,8949)
        744         15         44  1.20713174E-05                    1_GWF-(1,26486)  2.00800786E-07                     1_GWF-(1,9292)
        745         15         45  9.87537219E-06                    1_GWF-(1,26487)  2.74254519E-07                     1_GWF-(1,9291)
        746         15         46 -7.66009051E-06                    1_GWF-(1,26217)  1.80229777E-07                     1_GWF-(1,9292)
        747         15         47  6.69121406E-06                    1_GWF-(1,26422)  1.99639772E-07                     1_GWF-(1,9291)
        748         15         48  1.12079939E-05                    1_GWF-(1,26218)  1.52412002E-07                     1_GWF-(1,9292)
        749         15         49  1.09623980E-05                    1_GWF-(1,26217)  1.74665420E-07                     1_GWF-(1,9291)
        750         15         50  7.95136421E-06                    1_GWF-(1,26218) -2.68820486E-07                    1_GWF-(1,15107)
        751         16          1 -6.98934299E-06                    1_GWF-(1,26218) -1.95939383E-07                    1_GWF-(1,14938)
        752         16          2 -9.26030991E-06                    1_GWF-(1,26217)  1.55321566E-07                     1_GWF-(1,9291)
        753         16          3 -8.89596379E-06                    1_GWF-(1,26218)  1.22315816E-07                     1_GWF-(1,8949)
        754         16          4 -5.14248585E-06                    1_GWF-(1,26217) -1.27966070E-07                    1_GWF-(1,15107)
        755         16          5 -7.63311235E-06                    1_GWF-(1,26543)  1.07182815E-07                     1_GWF-(1,9291)
        756         16          6 -8.23915165E-06                    1_GWF-(1,26588)  1.09642958E-07                     1_GWF-(1,9291)
        757         16          7  7.85501084E-06                    1_GWF-(1,26588)  1.20819558E-07                     1_GWF-(1,9291)
        758         16          8  5.83157029E-06                    1_GWF-(1,26543)  1.05339641E-07                     1_GWF-(1,8949)
        759         16          9  4.26450600E-06                    1_GWF-(1,26544)  7.44586123E-08                    1_GWF-(1,15107)
        760         16         10  5.95627112E-06                    1_GWF-(1,26420) -5.38890400E-08                    1_GWF-(1,10844)
        761         16         11  7.50612341E-06                    1_GWF-(1,26487) -6.67340356E-08                    1_GWF-(1,10843)
        762         16         12 -6.59614114E-06                    1_GWF-(1,26487)  7.73626112E-08                     1_GWF-(1,9051)
        763         16         13  4.86473463E-06                    1_GWF-(1,26487)  8.57098800E-08                     1_GWF-(1,9051)
        764         16         14  3.64582329E-06                    1_GWF-(1,26486)  1.01431993E-07                    1_GWF-(1,15107)
        765         16         15  3.92979122E-06                    1_GWF-(1,26649)  7.01534148E-08                     1_GWF-(1,9051)
        766         16         16 -3.56552159E-06                    1_GWF-(1,26649)  8.14972802E-08                    1_GWF-(1,15110)
        767         16         17 -4.62213947E-06                    1_GWF-(1,26622)  7.12025911E-08                    1_GWF-(1,14938)
        768         16         18 -4.81266411E-06                    1_GWF-(1,26649)  8.00743402E-08                    1_GWF-(1,15107)
        769         16         19  4.48426731E-06                    1_GWF-(1,26623)  1.22689373E-07                    1_GWF-(1,15107)
        770         16         20  2.95211723E-06                    1_GWF-(1,26622)  7.30853895E-08                    1_GWF-(1,14938)
        771         16         21 -3.38186264E-06                    1_GWF-(1,26586)  1.00144275E-07                    1_GWF-(1,15107)
        772         16         22 -3.35477820E-06                    1_GWF-(1,26623)  8.13140098E-08                    1_GWF-(1,10010)
        773         16         23 -3.24224370E-06                    1_GWF-(1,26544)  1.02654702E-07                    1_GWF-(1,15107)
        774         16         24 -2.97836442E-06                    1_GWF-(1,26486)  6.56639291E-08                    1_GWF-(1,14938)
        775         16         25 -3.40776740E-06                    1_GWF-(1,26350)  6.99589021E-08                    1_GWF-(1,15107)
        776         16         26 -4.34126482E-06                    1_GWF-(1,26422)  5.59371170E-08                    1_GWF-(1,10011)
        777         16         27 -3.25682987E-06                    1_GWF-(1,26350)  3.77040492E-08                     1_GWF-(1,9989)
        778         16         28  3.44247154E-06                    1_GWF-(1,26350) -4.68782204E-08                    1_GWF-(1,15022)
        779         16         29 -3.58711131E-06                    1_GWF-(1,26665) -5.54112968E-08                    1_GWF-(1,15107)
        780         16         30  3.25670034E-06                    1_GWF-(1,26665)  5.71096172E-08                    1_GWF-(1,10011)
        781         16         31  2.35421786E-06                    1_GWF-(1,26666)  5.77968742E-08                    1_GWF-(1,10010)
        782         16         32  2.47896187E-06                    1_GWF-(1,26422)  3.64905794E-08                    1_GWF-(1,10010)
        783         16         33  2.76315771E-06                    1_GWF-(1,26350)  3.92375425E-08                    1_GWF-(1,15107)
        784         16         34  1.86209246E-06                    1_GWF-(1,26422) -3.34519100E-08                    1_GWF-(1,15107)
        785         16         35 -2.90289934E-06                    1_GWF-(1,26649)  3.43631412E-08                    1_GWF-(1,10011)
        786         16         36 -3.01282112E-06                    1_GWF-(1,26622)  3.28818151E-08                    1_GWF-(1,10010)
        787         16         37  2.24069179E-06                    1_GWF-(1,26622)  3.06536028E-08                     1_GWF-(1,9988)
        788         16         38 -1.93093927E-06                    1_GWF-(1,26422)  3.70840893E-08                    1_GWF-(1,15110)
        789         16         39 -1.85844537E-06                    1_GWF-(1,26544)  3.89588230E-08                    1_GWF-(1,14944)
        790         16         40 -2.28559156E-06                    1_GWF-(1,26486)  5.72135024E-08                    1_GWF-(1,15107)
        791         16         41 -2.13400047E-06                    1_GWF-(1,26487)  2.99497392E-08                    1_GWF-(1,15022)
        792         16         42  2.37197388E-06                    1_GWF-(1,26487)  3.01487232E-08                    1_GWF-(1,10842)
        793         16         43  2.44444402E-06                    1_GWF-(1,26420)  3.45893308E-08                    1_GWF-(1,10843)
        794         16         44  1.59812410E-06                    1_GWF-(1,26487)  4.02707426E-08                    1_GWF-(1,10843)
        795         16         45  1.24899348E-06                    1_GWF-(1,26350)  4.80682075E-08                    1_GWF-(1,15107)
        796         16         46 -1.39767812E-06                    1_GWF-(1,26543)  4.28079454E-08                    1_GWF-(1,10843)
        797         16         47 -2.25605845E-06                    1_GWF-(1,26588)  5.35669624E-08                    1_GWF-(1,15109)
        798         16         48  2.18580342E-06                    1_GWF-(1,26588)  5.31772347E-08                    1_GWF-(1,15107)
        799         16         49  2.09668414E-06                    1_GWF-(1,26543)  4.31842494E-08                    1_GWF-(1,14938)
        800         16         50  1.55660521E-06                    1_GWF-(1,26588)  4.27281009E-08                    1_GWF-(1,10843)
        801         17          1  1.43092802E-06                    1_GWF-(1,26665)  4.50441242E-08                    1_GWF-(1,14938)
        802         17          2  1.64986358E-06                    1_GWF-(1,26648)  5.63859811E-08                    1_GWF-(1,15107)
        803         17          3 -1.75991557E-06                    1_GWF-(1,26588)  4.83399153E-08                    1_GWF-(1,15107)
        804         17          4  2.03194915E-06                    1_GWF-(1,26588)  4.12783343E-08                    1_GWF-(1,15108)
        805         17          5  1.50008312E-06                    1_GWF-(1,26543)  5.61923972E-08                    1_GWF-(1,15107)
        806         17          6 -1.50354278E-06                    1_GWF-(1,26543)  3.56114263E-08                    1_GWF-(1,10845)
        807         17          7 -1.33864956E-06                    1_GWF-(1,26588)  3.46486900E-08                    1_GWF-(1,10843)
        808         17          8 -1.92022960E-06                    1_GWF-(1,26420)  2.92241388E-08                    1_GWF-(1,10842)
        809         17          9 -2.24977306E-06                    1_GWF-(1,26487)  2.89444248E-08                    1_GWF-(1,14938)
        810         17         10  1.87217362E-06                    1_GWF-(1,26487)  4.12110630E-08                    1_GWF-(1,15107)
        811         17         11  1.73104521E-06                    1_GWF-(1,26486)  2.59657353E-08                    1_GWF-(1,11188)
        812         17         12  1.35089129E-06                    1_GWF-(1,26544)  2.18543454E-08                    1_GWF-(1,10821)
        813         17         13  1.27750236E-06                    1_GWF-(1,26486)  2.40843345E-08                     1_GWF-(1,9988)
        814         17         14  1.24104893E-06                    1_GWF-(1,26623)  2.76397407E-08                    1_GWF-(1,10010)
        815         17         15  2.12963439E-06                    1_GWF-(1,26622)  2.40906221E-08                    1_GWF-(1,10010)
        816         17         16  2.17241915E-06                    1_GWF-(1,26649)  2.15440519E-08                    1_GWF-(1,10820)
        817         17         17 -1.67386099E-06                    1_GWF-(1,26623)  1.92285676E-08                    1_GWF-(1,10011)
        818         17         18 -1.47153040E-06                    1_GWF-(1,26589)  4.92768844E-08                    1_GWF-(1,15107)
        819         17         19 -1.73022008E-06                    1_GWF-(1,26588)  3.92360788E-08                    1_GWF-(1,10010)
        820         17         20  1.69240352E-06                    1_GWF-(1,26674)  4.16481353E-08                    1_GWF-(1,10011)
        821         17         21 -1.84784479E-06                    1_GWF-(1,26665)  3.60366791E-08                    1_GWF-(1,10011)
        822         17         22  1.92028484E-06                    1_GWF-(1,26665) -4.02685231E-08                    1_GWF-(1,15107)
        823         17         23  1.93040764E-06                    1_GWF-(1,26666)  3.63856547E-08                    1_GWF-(1,15107)
        824         17         24  1.97474052E-06                    1_GWF-(1,26665)  4.58518471E-08                    1_GWF-(1,15022)
        825         17         25  2.50188948E-06                    1_GWF-(1,26422)  5.95958055E-08                    1_GWF-(1,15107)
        826         17         26  2.40016969E-06                    1_GWF-(1,26350)  2.81161871E-08                     1_GWF-(1,9051)
        827         17         27  1.75185310E-06                    1_GWF-(1,26486)  3.67610253E-08                    1_GWF-(1,10010)
        828         17         28  1.61902757E-06                    1_GWF-(1,26544)  6.20618172E-08                    1_GWF-(1,15107)
        829         17         29  1.14576071E-06                    1_GWF-(1,26486)  5.20667751E-08                    1_GWF-(1,14938)
        830         17         30  9.32902440E-07                    1_GWF-(1,26200)  7.92221881E-08                    1_GWF-(1,15107)
        831         18          1 -8.02261217E-07                    1_GWF-(1,26649)  6.73653894E-08                    1_GWF-(1,14938)
 --------------------------------------------------------------------------------------------------------------------------------------



 MEMORY MANAGER TOTAL STORAGE BY DATA TYPE, IN MEGABYTES
 -------------------------------
                    ALLOCATED   
 DATA TYPE           MEMORY     
 -------------------------------
 Character        4.66090000E-02
 Logical          4.40000000E-05
 Integer          5.2037920     
 Real             11.901376     
 -------------------------------
 Total            17.151821     
 -------------------------------


 
 Run end date and time (yyyy/mm/dd hh:mm:ss): 2022/04/11 14:51:43
 Elapsed run time:  1.539 Seconds
 Normal termination of simulation.
