Get the name of the MODPATH simulation file.
Read the first two records of the simulation file to get mpnamFile and mplistFile ...
Allocate rectangular unstructured grid component.
Allocate time discretization data component ...
Allocate disvMf6Grid.
Read DISV binary grid file.
Read time discretization data component ...
 
 ----------------------------------------------------------
 Cell connection data:
 ----------------------------------------------------------
 Format has two lines for each cell, listed by cell number.
 Line 1: Cell connections
 Line 1: Face assignment codes
 ----------------------------------------------------------
        1       2      29
        0   20101   30101
 
        2       1       3      32
        0   10101   20101   30101
 
        3       2       6      33
        0   10101   20101   30101
 
        4       5       6
        0   20101   30101
 
        5       4       7       8
        0   10101   30101   20101
 
        6       3       4       7      36
        0   10101   40101   20101   30101
 
        7       5       6      10      37
        0   40101   10101   20101   30101
 
        8       5       9      10
        0   10101   20101   30101
 
        9       8      11      12
        0   10101   30101   20101
 
       10       7       8      11      40
        0   10101   40101   20101   30101
 
       11       9      10      14      41
        0   40101   10101   20101   30101
 
       12       9      13      14
        0   10101   20101   30101
 
       13      12      15      16
        0   10101   30101   20101
 
       14      11      12      15      44
        0   10101   40101   20101   30101
 
       15      13      14      18      45
        0   40101   10101   20101   30101
 
       16      13      17      18
        0   10101   20101   30101
 
       17      16      19      20
        0   10101   30101   20101
 
       18      15      16      19      48
        0   10101   40101   20101   30101
 
       19      17      18      22      49
        0   40101   10101   20101   30101
 
       20      17      21      22
        0   10101   20101   30101
 
       21      20      23      24
        0   10101   30101   20101
 
       22      19      20      23      52
        0   10101   40101   20101   30101
 
       23      21      22      25      53
        0   40101   10101   20101   30101
 
       24      21      25
        0   10101   30101
 
       25      23      24      26      56
        0   10101   40101   20101   30101
 
       26      25      57
        0   10101   30101
 
       27      30      63
        0   20101   30101
 
       28      29      30
        0   20101   30101
 
       29       1      28      31      32
        0   40101   10101   30101   20101
 
       30      27      28      31      66
        0   10101   40101   20101   30101
 
       31      29      30      34      67
        0   40101   10101   20101   30101
 
       32       2      29      33      34
        0   40101   10101   20101   30101
 
       33       3      32      35      36
        0   40101   10101   30101   20101
 
       34      31      32      35      70
        0   10101   40101   20101   30101
 
       35      33      34      38      71
        0   40101   10101   20101   30101
 
       36       6      33      37      38
        0   40101   10101   20101   30101
 
       37       7      36      39      40
        0   40101   10101   30101   20101
 
       38      35      36      39      74
        0   10101   40101   20101   30101
 
       39      37      38      42      75
        0   40101   10101   20101   30101
 
       40      10      37      41      42
        0   40101   10101   20101   30101
 
       41      11      40      43      44
        0   40101   10101   30101   20101
 
       42      39      40      43      78
        0   10101   40101   20101   30101
 
       43      41      42      46      79
        0   40101   10101   20101   30101
 
       44      14      41      45      46
        0   40101   10101   20101   30101
 
       45      15      44      47      48
        0   40101   10101   30101   20101
 
       46      43      44      47      82
        0   10101   40101   20101   30101
 
       47      45      46      50      83
        0   40101   10101   20101   30101
 
       48      18      45      49      50
        0   40101   10101   20101   30101
 
       49      19      48      51      52
        0   40101   10101   30101   20101
 
       50      47      48      51      86
        0   10101   40101   20101   30101
 
       51      49      50      54      87
        0   40101   10101   20101   30101
 
       52      22      49      53      54
        0   40101   10101   20101   30101
 
       53      23      52      55      56
        0   40101   10101   30101   20101
 
       54      51      52      55      90
        0   10101   40101   20101   30101
 
       55      53      54      58      91
        0   40101   10101   20101   30101
 
       56      25      53      57      58
        0   40101   10101   20101   30101
 
       57      26      56      59      60
        0   40101   10101   30101   20101
 
       58      55      56      59      94
        0   10101   40101   20101   30101
 
       59      57      58      61      95
        0   40101   10101   20101   30101
 
       60      57      61
        0   10101   30101
 
       61      59      60      98
        0   10101   40101   30101
 
       62      63      64
        0   20101   30101
 
       63      27      62      65      66
        0   40101   10101   30101   20101
 
       64      62      65     105
        0   40101   20101   30101
 
       65      63      64      68     106
        0   40101   10101   20101   30101
 
       66      30      63      67      68
        0   40101   10101   20101   30101
 
       67      31      66      69      70
        0   40101   10101   30101   20101
 
       68      65      66      69     109
        0   10101   40101   20101   30101
 
       69      67      68      72     110
        0   40101   10101   20101   30101
 
       70      34      67      71      72
        0   40101   10101   20101   30101
 
       71      35      70      73      74
        0   40101   10101   30101   20101
 
       72      69      70      73     113
        0   10101   40101   20101   30101
 
       73      71      72      76     114
        0   40101   10101   20101   30101
 
       74      38      71      75      76
        0   40101   10101   20101   30101
 
       75      39      74      77      78
        0   40101   10101   30101   20101
 
       76      73      74      77     117
        0   10101   40101   20101   30101
 
       77      75      76      80     118
        0   40101   10101   20101   30101
 
       78      42      75      79      80
        0   40101   10101   20101   30101
 
       79      43      78      81      82
        0   40101   10101   30101   20101
 
       80      77      78      81     121
        0   10101   40101   20101   30101
 
       81      79      80      84     122
        0   40101   10101   20101   30101
 
       82      46      79      83      84
        0   40101   10101   20101   30101
 
       83      47      82      85      86
        0   40101   10101   30101   20101
 
       84      81      82      85     125
        0   10101   40101   20101   30101
 
       85      83      84      88     126
        0   40101   10101   20101   30101
 
       86      50      83      87      88
        0   40101   10101   20101   30101
 
       87      51      86      89      90
        0   40101   10101   30101   20101
 
       88      85      86      89     129
        0   10101   40101   20101   30101
 
       89      87      88      92     130
        0   40101   10101   20101   30101
 
       90      54      87      91      92
        0   40101   10101   20101   30101
 
       91      55      90      93      94
        0   40101   10101   30101   20101
 
       92      89      90      93     133
        0   10101   40101   20101   30101
 
       93      91      92      96     134
        0   40101   10101   20101   30101
 
       94      58      91      95      96
        0   40101   10101   20101   30101
 
       95      59      94      97      98
        0   40101   10101   30101   20101
 
       96      93      94      97     137
        0   10101   40101   20101   30101
 
       97      95      96     100     138
        0   40101   10101   20101   30101
 
       98      61      95      99     100
        0   40101   10101   20101   30101
 
       99      98     101
        0   10101   30101
 
      100      97      98     101     141
        0   10101   40101   20101   30101
 
      101      99     100     102     142
        0   40101   10101   20101   30101
 
      102     101     103     145
        0   10101   20101   30101
 
      103     102     146
        0   10101   30101
 
      104     107     151
        0   20101   30101
 
      105      64     106     107
        0   40101   20101   30101
 
      106      65     105     108     109
        0   40101   10101   30101   20101
 
      107     104     105     108     153
        0   10101   40101   20101   30101
 
      108     106     107     111     154
        0   40101   10101   20101   30101
 
      109      68     106     110     111
        0   40101   10101   20101   30101
 
      110      69     109     112     113
        0   40101   10101   30101   20101
 
      111     108     109     112     157
        0   10101   40101   20101   30101
 
      112     110     111     115     158
        0   40101   10101   20101   30101
 
      113      72     110     114     115
        0   40101   10101   20101   30101
 
      114      73     113     116     117
        0   40101   10101   30101   20101
 
      115     112     113     116     161
        0   10101   40101   20101   30101
 
      116     114     115     119     162
        0   40101   10101   20101   30101
 
      117      76     114     118     119
        0   40101   10101   20101   30101
 
      118      77     117     120     121
        0   40101   10101   30101   20101
 
      119     116     117     120     165
        0   10101   40101   20101   30101
 
      120     118     119     123     166
        0   40101   10101   20101   30101
 
      121      80     118     122     123
        0   40101   10101   20101   30101
 
      122      81     121     124     125
        0   40101   10101   30101   20101
 
      123     120     121     124     169
        0   10101   40101   20101   30101
 
      124     122     123     127     170
        0   40101   10101   20101   30101
 
      125      84     122     126     127
        0   40101   10101   20101   30101
 
      126      85     125     128     129
        0   40101   10101   30101   20101
 
      127     124     125     128     173
        0   10101   40101   20101   30101
 
      128     126     127     131     174
        0   40101   10101   20101   30101
 
      129      88     126     130     131
        0   40101   10101   20101   30101
 
      130      89     129     132     133
        0   40101   10101   30101   20101
 
      131     128     129     132     177
        0   10101   40101   20101   30101
 
      132     130     131     135     178
        0   40101   10101   20101   30101
 
      133      92     130     134     135
        0   40101   10101   20101   30101
 
      134      93     133     136     137
        0   40101   10101   30101   20101
 
      135     132     133     136     181
        0   10101   40101   20101   30101
 
      136     134     135     139     182
        0   40101   10101   20101   30101
 
      137      96     134     138     139
        0   40101   10101   20101   30101
 
      138      97     137     140     141
        0   40101   10101   30101   20101
 
      139     136     137     140     185
        0   10101   40101   20101   30101
 
      140     138     139     143     186
        0   40101   10101   20101   30101
 
      141     100     138     142     143
        0   40101   10101   20101   30101
 
      142     101     141     144     145
        0   40101   10101   30101   20101
 
      143     140     141     144     189
        0   10101   40101   20101   30101
 
      144     142     143     147     190
        0   40101   10101   20101   30101
 
      145     102     142     146     147
        0   40101   10101   20101   30101
 
      146     103     145     148     149
        0   40101   10101   30101   20101
 
      147     144     145     148     193
        0   10101   40101   20101   30101
 
      148     146     147     150     194
        0   40101   10101   20101   30101
 
      149     146     150
        0   10101   30101
 
      150     148     149     197
        0   10101   40101   30101
 
      151     104     152     153
        0   40101   30101   20101
 
      152     151     155     203
        0   40101   20101   30101
 
      153     107     151     154     155
        0   40101   10101   20101   30101
 
      154     108     153     156     157
        0   40101   10101   30101   20101
 
      155     152     153     156     206
        0   10101   40101   20101   30101
 
      156     154     155     159     207
        0   40101   10101   20101   30101
 
      157     111     154     158     159
        0   40101   10101   20101   30101
 
      158     112     157     160     161
        0   40101   10101   30101   20101
 
      159     156     157     160     210
        0   10101   40101   20101   30101
 
      160     158     159     163     211
        0   40101   10101   20101   30101
 
      161     115     158     162     163
        0   40101   10101   20101   30101
 
      162     116     161     164     165
        0   40101   10101   30101   20101
 
      163     160     161     164     214
        0   10101   40101   20101   30101
 
      164     162     163     167     215
        0   40101   10101   20101   30101
 
      165     119     162     166     167
        0   40101   10101   20101   30101
 
      166     120     165     168     169
        0   40101   10101   30101   20101
 
      167     164     165     168     218
        0   10101   40101   20101   30101
 
      168     166     167     171     219
        0   40101   10101   20101   30101
 
      169     123     166     170     171
        0   40101   10101   20101   30101
 
      170     124     169     172     173
        0   40101   10101   30101   20101
 
      171     168     169     172     222
        0   10101   40101   20101   30101
 
      172     170     171     175     223
        0   40101   10101   20101   30101
 
      173     127     170     174     175
        0   40101   10101   20101   30101
 
      174     128     173     176     177
        0   40101   10101   30101   20101
 
      175     172     173     176     226
        0   10101   40101   20101   30101
 
      176     174     175     179     227
        0   40101   10101   20101   30101
 
      177     131     174     178     179
        0   40101   10101   20101   30101
 
      178     132     177     180     181
        0   40101   10101   30101   20101
 
      179     176     177     180     230
        0   10101   40101   20101   30101
 
      180     178     179     183     231
        0   40101   10101   20101   30101
 
      181     135     178     182     183
        0   40101   10101   20101   30101
 
      182     136     181     184     185
        0   40101   10101   30101   20101
 
      183     180     181     184     234
        0   10101   40101   20101   30101
 
      184     182     183     187     235
        0   40101   10101   20101   30101
 
      185     139     182     186     187
        0   40101   10101   20101   30101
 
      186     140     185     188     189
        0   40101   10101   30101   20101
 
      187     184     185     188     238
        0   10101   40101   20101   30101
 
      188     186     187     191     239
        0   40101   10101   20101   30101
 
      189     143     186     190     191
        0   40101   10101   20101   30101
 
      190     144     189     192     193
        0   40101   10101   30101   20101
 
      191     188     189     192     242
        0   10101   40101   20101   30101
 
      192     190     191     195     243
        0   40101   10101   20101   30101
 
      193     147     190     194     195
        0   40101   10101   20101   30101
 
      194     148     193     196     197
        0   40101   10101   30101   20101
 
      195     192     193     196     246
        0   10101   40101   20101   30101
 
      196     194     195     199     247
        0   40101   10101   20101   30101
 
      197     150     194     198     199
        0   40101   10101   20101   30101
 
      198     197     200
        0   10101   30101
 
      199     196     197     200     250
        0   10101   40101   20101   30101
 
      200     198     199     201     251
        0   40101   10101   20101   30101
 
      201     200     202     254
        0   10101   20101   30101
 
      202     201     255
        0   10101   30101
 
      203     152     205     206
        0   40101   30101   20101
 
      204     205     267
        0   20101   30101
 
      205     203     204     208     268
        0   40101   10101   20101   30101
 
      206     155     203     207     208
        0   40101   10101   20101   30101
 
      207     156     206     209     210
        0   40101   10101   30101   20101
 
      208     205     206     209     271     272
        0   10101   40101   20101   30102   30202
 
      209     207     208     212     275     276
        0   40101   10101   20101   30102   30202
 
      210     159     207     211     212
        0   40101   10101   20101   30101
 
      211     160     210     213     214
        0   40101   10101   30101   20101
 
      212     209     210     213     287     288
        0   10101   40101   20101   30102   30202
 
      213     211     212     216     291     292
        0   40101   10101   20101   30102   30202
 
      214     163     211     215     216
        0   40101   10101   20101   30101
 
      215     164     214     217     218
        0   40101   10101   30101   20101
 
      216     213     214     217     321     322
        0   10101   40101   20101   30102   30202
 
      217     215     216     220     325     326
        0   40101   10101   20101   30102   30202
 
      218     167     215     219     220
        0   40101   10101   20101   30101
 
      219     168     218     221     222
        0   40101   10101   30101   20101
 
      220     217     218     221     361     362
        0   10101   40101   20101   30102   30202
 
      221     219     220     224     365     366
        0   40101   10101   20101   30102   30202
 
      222     171     219     223     224
        0   40101   10101   20101   30101
 
      223     172     222     225     226
        0   40101   10101   30101   20101
 
      224     221     222     225     401     402
        0   10101   40101   20101   30102   30202
 
      225     223     224     228     405     406
        0   40101   10101   20101   30102   30202
 
      226     175     223     227     228
        0   40101   10101   20101   30101
 
      227     176     226     229     230
        0   40101   10101   30101   20101
 
      228     225     226     229     441     442
        0   10101   40101   20101   30102   30202
 
      229     227     228     232     445     446
        0   40101   10101   20101   30102   30202
 
      230     179     227     231     232
        0   40101   10101   20101   30101
 
      231     180     230     233     234
        0   40101   10101   30101   20101
 
      232     229     230     233     481     482
        0   10101   40101   20101   30102   30202
 
      233     231     232     236     485     486
        0   40101   10101   20101   30102   30202
 
      234     183     231     235     236
        0   40101   10101   20101   30101
 
      235     184     234     237     238
        0   40101   10101   30101   20101
 
      236     233     234     237     521     522
        0   10101   40101   20101   30102   30202
 
      237     235     236     240     525     526
        0   40101   10101   20101   30102   30202
 
      238     187     235     239     240
        0   40101   10101   20101   30101
 
      239     188     238     241     242
        0   40101   10101   30101   20101
 
      240     237     238     241     561     562
        0   10101   40101   20101   30102   30202
 
      241     239     240     244     565     566
        0   40101   10101   20101   30102   30202
 
      242     191     239     243     244
        0   40101   10101   20101   30101
 
      243     192     242     245     246
        0   40101   10101   30101   20101
 
      244     241     242     245     577
        0   10101   40101   20101   30101
 
      245     243     244     248     578
        0   40101   10101   20101   30101
 
      246     195     243     247     248
        0   40101   10101   20101   30101
 
      247     196     246     249     250
        0   40101   10101   30101   20101
 
      248     245     246     249     581
        0   10101   40101   20101   30101
 
      249     247     248     252     582
        0   40101   10101   20101   30101
 
      250     199     247     251     252
        0   40101   10101   20101   30101
 
      251     200     250     253     254
        0   40101   10101   30101   20101
 
      252     249     250     253     585
        0   10101   40101   20101   30101
 
      253     251     252     256     586
        0   40101   10101   20101   30101
 
      254     201     251     255     256
        0   40101   10101   20101   30101
 
      255     202     254     257     258
        0   40101   10101   30101   20101
 
      256     253     254     257     589
        0   10101   40101   20101   30101
 
      257     255     256     260     590
        0   40101   10101   20101   30101
 
      258     255     259     260
        0   10101   20101   30101
 
      259     258     261
        0   10101   30101
 
      260     257     258     261     593
        0   10101   40101   20101   30101
 
      261     259     260     262     594
        0   40101   10101   20101   30101
 
      262     261     263     597
        0   10101   20101   30101
 
      263     262     264     598
        0   10101   20101   30101
 
      264     263     601
        0   10101   30101
 
      265     266     267
        0   30101   20101
 
      266     265     269     613
        0   40101   20101   30101
 
      267     204     265     268     269
        0   40101   10101   20101   30101
 
      268     205     267     270     271     273
        0   40101   10101   30101   20102   20202
 
      269     266     267     270     616
        0   10101   40101   20101   30101
 
      270     268     269     279     281     617
        0   40101   10101   20102   20202   30101
 
      271     208     268     272     273
        0   40101   10101   20101   30101
 
      272     208     271     274     275
        0   40101   10101   30101   20101
 
      273     268     271     274     279
        0   10101   40101   20101   30101
 
      274     272     273     277     280
        0   40101   10101   20101   30101
 
      275     209     272     276     277
        0   40101   10101   20101   30101
 
      276     209     275     278     287
        0   40101   10101   30101   20101
 
      277     274     275     278     283
        0   10101   40101   20101   30101
 
      278     276     277     284     289
        0   40101   10101   30101   20101
 
      279     270     273     280     281
        0   10101   40101   20101   30101
 
      280     274     279     282     283
        0   40101   10101   30101   20101
 
      281     270     279     282     620
        0   10101   40101   20101   30101
 
      282     280     281     285     621
        0   40101   10101   20101   30101
 
      283     277     280     284     285
        0   40101   10101   20101   30101
 
      284     278     283     286     295
        0   40101   10101   30101   20101
 
      285     282     283     286     624
        0   10101   40101   20101   30101
 
      286     284     285     300     625
        0   40101   10101   20101   30101
 
      287     212     276     288     289
        0   40101   10101   20101   30101
 
      288     212     287     290     291
        0   40101   10101   30101   20101
 
      289     278     287     290     295
        0   10101   40101   20101   30101
 
      290     288     289     293     296     297
        0   40101   10101   20101   30102   30202
 
      291     213     288     292     293
        0   40101   10101   20101   30101
 
      292     213     291     294     321
        0   40101   10101   30101   20101
 
      293     290     291     294     305     306
        0   10101   40101   20101   30102   30202
 
      294     292     293     309     310     323
        0   40101   10101   30102   30202   20101
 
      295     284     289     296     298     300
        0   10101   40101   20102   20202   30101
 
      296     290     295     297     298
        0   40101   10101   20101   30101
 
      297     290     296     299     305
        0   40101   10101   30101   20101
 
      298     295     296     299     301
        0   10101   40101   20101   30101
 
      299     297     298     302     307
        0   40101   10101   30101   20101
 
      300     286     295     301     303     636
        0   10101   40101   20102   20202   30101
 
      301     298     300     302     303
        0   40101   10101   20101   30101
 
      302     299     301     304     313
        0   40101   10101   30101   20101
 
      303     300     301     304     637
        0   10101   40101   20101   30101
 
      304     302     303     315     638
        0   40101   10101   20101   30101
 
      305     293     297     306     307
        0   40101   10101   20101   30101
 
      306     293     305     308     309
        0   40101   10101   30101   20101
 
      307     299     305     308     313
        0   10101   40101   20101   30101
 
      308     306     307     311     314
        0   40101   10101   20101   30101
 
      309     294     306     310     311
        0   40101   10101   20101   30101
 
      310     294     309     312     329
        0   40101   10101   30101   20101
 
      311     308     309     312     317
        0   10101   40101   20101   30101
 
      312     310     311     318     331
        0   40101   10101   30101   20101
 
      313     302     307     314     315
        0   10101   40101   20101   30101
 
      314     308     313     316     317
        0   40101   10101   30101   20101
 
      315     304     313     316     646
        0   10101   40101   20101   30101
 
      316     314     315     319     647
        0   40101   10101   20101   30101
 
      317     311     314     318     319
        0   40101   10101   20101   30101
 
      318     312     317     320     337
        0   40101   10101   30101   20101
 
      319     316     317     320     650
        0   10101   40101   20101   30101
 
      320     318     319     339     651
        0   40101   10101   20101   30101
 
      321     216     292     322     323
        0   40101   10101   20101   30101
 
      322     216     321     324     325
        0   40101   10101   30101   20101
 
      323     294     321     324     329     330
        0   10101   40101   20101   30102   30202
 
      324     322     323     327     333     334
        0   40101   10101   20101   30102   30202
 
      325     217     322     326     327
        0   40101   10101   20101   30101
 
      326     217     325     328     361
        0   40101   10101   30101   20101
 
      327     324     325     328     345     346
        0   10101   40101   20101   30102   30202
 
      328     326     327     349     350     363
        0   40101   10101   30102   30202   20101
 
      329     310     323     330     331
        0   10101   40101   20101   30101
 
      330     323     329     332     333
        0   40101   10101   30101   20101
 
      331     312     329     332     337
        0   10101   40101   20101   30101
 
      332     330     331     335     338
        0   40101   10101   20101   30101
 
      333     324     330     334     335
        0   40101   10101   20101   30101
 
      334     324     333     336     345
        0   40101   10101   30101   20101
 
      335     332     333     336     341
        0   10101   40101   20101   30101
 
      336     334     335     342     347
        0   40101   10101   30101   20101
 
      337     318     331     338     339
        0   10101   40101   20101   30101
 
      338     332     337     340     341
        0   40101   10101   30101   20101
 
      339     320     337     340     724
        0   10101   40101   20101   30101
 
      340     338     339     343     725
        0   40101   10101   20101   30101
 
      341     335     338     342     343
        0   40101   10101   20101   30101
 
      342     336     341     344     353
        0   40101   10101   30101   20101
 
      343     340     341     344     728
        0   10101   40101   20101   30101
 
      344     342     343     355     729
        0   40101   10101   20101   30101
 
      345     327     334     346     347
        0   40101   10101   20101   30101
 
      346     327     345     348     349
        0   40101   10101   30101   20101
 
      347     336     345     348     353
        0   10101   40101   20101   30101
 
      348     346     347     351     354
        0   40101   10101   20101   30101
 
      349     328     346     350     351
        0   40101   10101   20101   30101
 
      350     328     349     352     369
        0   40101   10101   30101   20101
 
      351     348     349     352     357
        0   10101   40101   20101   30101
 
      352     350     351     358     371
        0   40101   10101   30101   20101
 
      353     342     347     354     355
        0   10101   40101   20101   30101
 
      354     348     353     356     357
        0   40101   10101   30101   20101
 
      355     344     353     356     764
        0   10101   40101   20101   30101
 
      356     354     355     359     765
        0   40101   10101   20101   30101
 
      357     351     354     358     359
        0   40101   10101   20101   30101
 
      358     352     357     360     377
        0   40101   10101   30101   20101
 
      359     356     357     360     768
        0   10101   40101   20101   30101
 
      360     358     359     379     769
        0   40101   10101   20101   30101
 
      361     220     326     362     363
        0   40101   10101   20101   30101
 
      362     220     361     364     365
        0   40101   10101   30101   20101
 
      363     328     361     364     369     370
        0   10101   40101   20101   30102   30202
 
      364     362     363     367     373     374
        0   40101   10101   20101   30102   30202
 
      365     221     362     366     367
        0   40101   10101   20101   30101
 
      366     221     365     368     401
        0   40101   10101   30101   20101
 
      367     364     365     368     385     386
        0   10101   40101   20101   30102   30202
 
      368     366     367     389     390     403
        0   40101   10101   30102   30202   20101
 
      369     350     363     370     371
        0   10101   40101   20101   30101
 
      370     363     369     372     373
        0   40101   10101   30101   20101
 
      371     352     369     372     377
        0   10101   40101   20101   30101
 
      372     370     371     375     378
        0   40101   10101   20101   30101
 
      373     364     370     374     375
        0   40101   10101   20101   30101
 
      374     364     373     376     385
        0   40101   10101   30101   20101
 
      375     372     373     376     381
        0   10101   40101   20101   30101
 
      376     374     375     382     387
        0   40101   10101   30101   20101
 
      377     358     371     378     379
        0   10101   40101   20101   30101
 
      378     372     377     380     381
        0   40101   10101   30101   20101
 
      379     360     377     380    1064
        0   10101   40101   20101   30101
 
      380     378     379     383    1065
        0   40101   10101   20101   30101
 
      381     375     378     382     383
        0   40101   10101   20101   30101
 
      382     376     381     384     393
        0   40101   10101   30101   20101
 
      383     380     381     384    1068
        0   10101   40101   20101   30101
 
      384     382     383     395    1069
        0   40101   10101   20101   30101
 
      385     367     374     386     387
        0   40101   10101   20101   30101
 
      386     367     385     388     389
        0   40101   10101   30101   20101
 
      387     376     385     388     393
        0   10101   40101   20101   30101
 
      388     386     387     391     394
        0   40101   10101   20101   30101
 
      389     368     386     390     391
        0   40101   10101   20101   30101
 
      390     368     389     392     409
        0   40101   10101   30101   20101
 
      391     388     389     392     397
        0   10101   40101   20101   30101
 
      392     390     391     398     411
        0   40101   10101   30101   20101
 
      393     382     387     394     395
        0   10101   40101   20101   30101
 
      394     388     393     396     397
        0   40101   10101   30101   20101
 
      395     384     393     396    1104
        0   10101   40101   20101   30101
 
      396     394     395     399    1105
        0   40101   10101   20101   30101
 
      397     391     394     398     399
        0   40101   10101   20101   30101
 
      398     392     397     400     417
        0   40101   10101   30101   20101
 
      399     396     397     400    1108
        0   10101   40101   20101   30101
 
      400     398     399     419    1109
        0   40101   10101   20101   30101
 
      401     224     366     402     403
        0   40101   10101   20101   30101
 
      402     224     401     404     405
        0   40101   10101   30101   20101
 
      403     368     401     404     409     410
        0   10101   40101   20101   30102   30202
 
      404     402     403     407     413     414
        0   40101   10101   20101   30102   30202
 
      405     225     402     406     407
        0   40101   10101   20101   30101
 
      406     225     405     408     441
        0   40101   10101   30101   20101
 
      407     404     405     408     425     426
        0   10101   40101   20101   30102   30202
 
      408     406     407     429     430     443
        0   40101   10101   30102   30202   20101
 
      409     390     403     410     411
        0   10101   40101   20101   30101
 
      410     403     409     412     413
        0   40101   10101   30101   20101
 
      411     392     409     412     417
        0   10101   40101   20101   30101
 
      412     410     411     415     418
        0   40101   10101   20101   30101
 
      413     404     410     414     415
        0   40101   10101   20101   30101
 
      414     404     413     416     425
        0   40101   10101   30101   20101
 
      415     412     413     416     421
        0   10101   40101   20101   30101
 
      416     414     415     422     427
        0   40101   10101   30101   20101
 
      417     398     411     418     419
        0   10101   40101   20101   30101
 
      418     412     417     420     421
        0   40101   10101   30101   20101
 
      419     400     417     420    1464
        0   10101   40101   20101   30101
 
      420     418     419     423    1465
        0   40101   10101   20101   30101
 
      421     415     418     422     423
        0   40101   10101   20101   30101
 
      422     416     421     424     433
        0   40101   10101   30101   20101
 
      423     420     421     424    1468
        0   10101   40101   20101   30101
 
      424     422     423     435    1469
        0   40101   10101   20101   30101
 
      425     407     414     426     427
        0   40101   10101   20101   30101
 
      426     407     425     428     429
        0   40101   10101   30101   20101
 
      427     416     425     428     433
        0   10101   40101   20101   30101
 
      428     426     427     431     434
        0   40101   10101   20101   30101
 
      429     408     426     430     431
        0   40101   10101   20101   30101
 
      430     408     429     432     449
        0   40101   10101   30101   20101
 
      431     428     429     432     437
        0   10101   40101   20101   30101
 
      432     430     431     438     451
        0   40101   10101   30101   20101
 
      433     422     427     434     435
        0   10101   40101   20101   30101
 
      434     428     433     436     437
        0   40101   10101   30101   20101
 
      435     424     433     436    1504
        0   10101   40101   20101   30101
 
      436     434     435     439    1505
        0   40101   10101   20101   30101
 
      437     431     434     438     439
        0   40101   10101   20101   30101
 
      438     432     437     440     457
        0   40101   10101   30101   20101
 
      439     436     437     440    1508
        0   10101   40101   20101   30101
 
      440     438     439     459    1509
        0   40101   10101   20101   30101
 
      441     228     406     442     443
        0   40101   10101   20101   30101
 
      442     228     441     444     445
        0   40101   10101   30101   20101
 
      443     408     441     444     449     450
        0   10101   40101   20101   30102   30202
 
      444     442     443     447     453     454
        0   40101   10101   20101   30102   30202
 
      445     229     442     446     447
        0   40101   10101   20101   30101
 
      446     229     445     448     481
        0   40101   10101   30101   20101
 
      447     444     445     448     465     466
        0   10101   40101   20101   30102   30202
 
      448     446     447     469     470     483
        0   40101   10101   30102   30202   20101
 
      449     430     443     450     451
        0   10101   40101   20101   30101
 
      450     443     449     452     453
        0   40101   10101   30101   20101
 
      451     432     449     452     457
        0   10101   40101   20101   30101
 
      452     450     451     455     458
        0   40101   10101   20101   30101
 
      453     444     450     454     455
        0   40101   10101   20101   30101
 
      454     444     453     456     465
        0   40101   10101   30101   20101
 
      455     452     453     456     461
        0   10101   40101   20101   30101
 
      456     454     455     462     467
        0   40101   10101   30101   20101
 
      457     438     451     458     459
        0   10101   40101   20101   30101
 
      458     452     457     460     461
        0   40101   10101   30101   20101
 
      459     440     457     460    1864
        0   10101   40101   20101   30101
 
      460     458     459     463    1865
        0   40101   10101   20101   30101
 
      461     455     458     462     463
        0   40101   10101   20101   30101
 
      462     456     461     464     473
        0   40101   10101   30101   20101
 
      463     460     461     464    1868
        0   10101   40101   20101   30101
 
      464     462     463     475    1869
        0   40101   10101   20101   30101
 
      465     447     454     466     467
        0   40101   10101   20101   30101
 
      466     447     465     468     469
        0   40101   10101   30101   20101
 
      467     456     465     468     473
        0   10101   40101   20101   30101
 
      468     466     467     471     474
        0   40101   10101   20101   30101
 
      469     448     466     470     471
        0   40101   10101   20101   30101
 
      470     448     469     472     489
        0   40101   10101   30101   20101
 
      471     468     469     472     477
        0   10101   40101   20101   30101
 
      472     470     471     478     491
        0   40101   10101   30101   20101
 
      473     462     467     474     475
        0   10101   40101   20101   30101
 
      474     468     473     476     477
        0   40101   10101   30101   20101
 
      475     464     473     476    1904
        0   10101   40101   20101   30101
 
      476     474     475     479    1905
        0   40101   10101   20101   30101
 
      477     471     474     478     479
        0   40101   10101   20101   30101
 
      478     472     477     480     497
        0   40101   10101   30101   20101
 
      479     476     477     480    1908
        0   10101   40101   20101   30101
 
      480     478     479     499    1909
        0   40101   10101   20101   30101
 
      481     232     446     482     483
        0   40101   10101   20101   30101
 
      482     232     481     484     485
        0   40101   10101   30101   20101
 
      483     448     481     484     489     490
        0   10101   40101   20101   30102   30202
 
      484     482     483     487     493     494
        0   40101   10101   20101   30102   30202
 
      485     233     482     486     487
        0   40101   10101   20101   30101
 
      486     233     485     488     521
        0   40101   10101   30101   20101
 
      487     484     485     488     505     506
        0   10101   40101   20101   30102   30202
 
      488     486     487     509     510     523
        0   40101   10101   30102   30202   20101
 
      489     470     483     490     491
        0   10101   40101   20101   30101
 
      490     483     489     492     493
        0   40101   10101   30101   20101
 
      491     472     489     492     497
        0   10101   40101   20101   30101
 
      492     490     491     495     498
        0   40101   10101   20101   30101
 
      493     484     490     494     495
        0   40101   10101   20101   30101
 
      494     484     493     496     505
        0   40101   10101   30101   20101
 
      495     492     493     496     501
        0   10101   40101   20101   30101
 
      496     494     495     502     507
        0   40101   10101   30101   20101
 
      497     478     491     498     499
        0   10101   40101   20101   30101
 
      498     492     497     500     501
        0   40101   10101   30101   20101
 
      499     480     497     500    2264
        0   10101   40101   20101   30101
 
      500     498     499     503    2265
        0   40101   10101   20101   30101
 
      501     495     498     502     503
        0   40101   10101   20101   30101
 
      502     496     501     504     513
        0   40101   10101   30101   20101
 
      503     500     501     504    2268
        0   10101   40101   20101   30101
 
      504     502     503     515    2269
        0   40101   10101   20101   30101
 
      505     487     494     506     507
        0   40101   10101   20101   30101
 
      506     487     505     508     509
        0   40101   10101   30101   20101
 
      507     496     505     508     513
        0   10101   40101   20101   30101
 
      508     506     507     511     514
        0   40101   10101   20101   30101
 
      509     488     506     510     511
        0   40101   10101   20101   30101
 
      510     488     509     512     529
        0   40101   10101   30101   20101
 
      511     508     509     512     517
        0   10101   40101   20101   30101
 
      512     510     511     518     531
        0   40101   10101   30101   20101
 
      513     502     507     514     515
        0   10101   40101   20101   30101
 
      514     508     513     516     517
        0   40101   10101   30101   20101
 
      515     504     513     516    2304
        0   10101   40101   20101   30101
 
      516     514     515     519    2305
        0   40101   10101   20101   30101
 
      517     511     514     518     519
        0   40101   10101   20101   30101
 
      518     512     517     520     537
        0   40101   10101   30101   20101
 
      519     516     517     520    2308
        0   10101   40101   20101   30101
 
      520     518     519     539    2309
        0   40101   10101   20101   30101
 
      521     236     486     522     523
        0   40101   10101   20101   30101
 
      522     236     521     524     525
        0   40101   10101   30101   20101
 
      523     488     521     524     529     530
        0   10101   40101   20101   30102   30202
 
      524     522     523     527     533     534
        0   40101   10101   20101   30102   30202
 
      525     237     522     526     527
        0   40101   10101   20101   30101
 
      526     237     525     528     561
        0   40101   10101   30101   20101
 
      527     524     525     528     545     546
        0   10101   40101   20101   30102   30202
 
      528     526     527     549     550     563
        0   40101   10101   30102   30202   20101
 
      529     510     523     530     531
        0   10101   40101   20101   30101
 
      530     523     529     532     533
        0   40101   10101   30101   20101
 
      531     512     529     532     537
        0   10101   40101   20101   30101
 
      532     530     531     535     538
        0   40101   10101   20101   30101
 
      533     524     530     534     535
        0   40101   10101   20101   30101
 
      534     524     533     536     545
        0   40101   10101   30101   20101
 
      535     532     533     536     541
        0   10101   40101   20101   30101
 
      536     534     535     542     547
        0   40101   10101   30101   20101
 
      537     518     531     538     539
        0   10101   40101   20101   30101
 
      538     532     537     540     541
        0   40101   10101   30101   20101
 
      539     520     537     540    2616
        0   10101   40101   20101   30101
 
      540     538     539     543    2617
        0   40101   10101   20101   30101
 
      541     535     538     542     543
        0   40101   10101   20101   30101
 
      542     536     541     544     553
        0   40101   10101   30101   20101
 
      543     540     541     544    2620
        0   10101   40101   20101   30101
 
      544     542     543     555    2621
        0   40101   10101   20101   30101
 
      545     527     534     546     547
        0   40101   10101   20101   30101
 
      546     527     545     548     549
        0   40101   10101   30101   20101
 
      547     536     545     548     553
        0   10101   40101   20101   30101
 
      548     546     547     551     554
        0   40101   10101   20101   30101
 
      549     528     546     550     551
        0   40101   10101   20101   30101
 
      550     528     549     552     569
        0   40101   10101   30101   20101
 
      551     548     549     552     557
        0   10101   40101   20101   30101
 
      552     550     551     558     569
        0   40101   10101   30101   20101
 
      553     542     547     554     555
        0   10101   40101   20101   30101
 
      554     548     553     556     557
        0   40101   10101   30101   20101
 
      555     544     553     556    2650
        0   10101   40101   20101   30101
 
      556     554     555     559    2651
        0   40101   10101   20101   30101
 
      557     551     554     558     559
        0   40101   10101   20101   30101
 
      558     552     557     560     571
        0   40101   10101   30101   20101
 
      559     556     557     560    2654
        0   10101   40101   20101   30101
 
      560     558     559     571    2655
        0   40101   10101   20101   30101
 
      561     240     526     562     563
        0   40101   10101   20101   30101
 
      562     240     561     564     565
        0   40101   10101   30101   20101
 
      563     528     561     564     569
        0   10101   40101   20101   30101
 
      564     562     563     567     570
        0   40101   10101   20101   30101
 
      565     241     562     566     567
        0   40101   10101   20101   30101
 
      566     241     565     568     577
        0   40101   10101   30101   20101
 
      567     564     565     568     573
        0   10101   40101   20101   30101
 
      568     566     567     574     577
        0   40101   10101   30101   20101
 
      569     550     552     563     570     571
        0   10102   10202   40101   20101   30101
 
      570     564     569     572     573
        0   40101   10101   30101   20101
 
      571     558     560     569     572    2734
        0   10102   10202   40101   20101   30101
 
      572     570     571     575    2735
        0   40101   10101   20101   30101
 
      573     567     570     574     575
        0   40101   10101   20101   30101
 
      574     568     573     576     579
        0   40101   10101   30101   20101
 
      575     572     573     576    2738
        0   10101   40101   20101   30101
 
      576     574     575     579    2739
        0   40101   10101   20101   30101
 
      577     244     566     568     578     579
        0   40101   10102   10202   20101   30101
 
      578     245     577     580     581
        0   40101   10101   30101   20101
 
      579     574     576     577     580    2750
        0   10102   10202   40101   20101   30101
 
      580     578     579     583    2751
        0   40101   10101   20101   30101
 
      581     248     578     582     583
        0   40101   10101   20101   30101
 
      582     249     581     584     585
        0   40101   10101   30101   20101
 
      583     580     581     584    2754
        0   10101   40101   20101   30101
 
      584     582     583     587    2755
        0   40101   10101   20101   30101
 
      585     252     582     586     587
        0   40101   10101   20101   30101
 
      586     253     585     588     589
        0   40101   10101   30101   20101
 
      587     584     585     588    2758
        0   10101   40101   20101   30101
 
      588     586     587     591    2759
        0   40101   10101   20101   30101
 
      589     256     586     590     591
        0   40101   10101   20101   30101
 
      590     257     589     592     593
        0   40101   10101   30101   20101
 
      591     588     589     592    2762
        0   10101   40101   20101   30101
 
      592     590     591     595    2763
        0   40101   10101   20101   30101
 
      593     260     590     594     595
        0   40101   10101   20101   30101
 
      594     261     593     596     597
        0   40101   10101   30101   20101
 
      595     592     593     596    2766
        0   10101   40101   20101   30101
 
      596     594     595     599    2767
        0   40101   10101   20101   30101
 
      597     262     594     598     599
        0   40101   10101   20101   30101
 
      598     263     597     600     601
        0   40101   10101   30101   20101
 
      599     596     597     600    2770
        0   10101   40101   20101   30101
 
      600     598     599     603    2771
        0   40101   10101   20101   30101
 
      601     264     598     602     603
        0   40101   10101   20101   30101
 
      602     601     604     605
        0   10101   30101   20101
 
      603     600     601     604    2774
        0   10101   40101   20101   30101
 
      604     602     603     607    2775
        0   40101   10101   20101   30101
 
      605     602     606     607
        0   10101   20101   30101
 
      606     605     608
        0   10101   30101
 
      607     604     605     608    2778
        0   10101   40101   20101   30101
 
      608     606     607     609    2779
        0   40101   10101   20101   30101
 
      609     608     610    2782
        0   10101   20101   30101
 
      610     609    2783
        0   10101   30101
 
      611     614    2786
        0   20101   30101
 
      612     613     614
        0   20101   30101
 
      613     266     612     615     616
        0   40101   10101   30101   20101
 
      614     611     612     615    2788
        0   10101   40101   20101   30101
 
      615     613     614     618    2789
        0   40101   10101   20101   30101
 
      616     269     613     617     618
        0   40101   10101   20101   30101
 
      617     270     616     619     620     622
        0   40101   10101   30101   20102   20202
 
      618     615     616     619    2792
        0   10101   40101   20101   30101
 
      619     617     618     628     630    2793
        0   40101   10101   20102   20202   30101
 
      620     281     617     621     622
        0   40101   10101   20101   30101
 
      621     282     620     623     624
        0   40101   10101   30101   20101
 
      622     617     620     623     628
        0   10101   40101   20101   30101
 
      623     621     622     626     629
        0   40101   10101   20101   30101
 
      624     285     621     625     626
        0   40101   10101   20101   30101
 
      625     286     624     627     636
        0   40101   10101   30101   20101
 
      626     623     624     627     632
        0   10101   40101   20101   30101
 
      627     625     626     633     641
        0   40101   10101   30101   20101
 
      628     619     622     629     630
        0   10101   40101   20101   30101
 
      629     623     628     631     632
        0   40101   10101   30101   20101
 
      630     619     628     631    2796
        0   10101   40101   20101   30101
 
      631     629     630     634    2797
        0   40101   10101   20101   30101
 
      632     626     629     633     634
        0   40101   10101   20101   30101
 
      633     627     632     635     674
        0   40101   10101   30101   20101
 
      634     631     632     635    2800
        0   10101   40101   20101   30101
 
      635     633     634     679    2801
        0   40101   10101   20101   30101
 
      636     300     625     637     639     641
        0   40101   10101   20102   20202   30101
 
      637     303     636     638     639
        0   40101   10101   20101   30101
 
      638     304     637     640     646
        0   40101   10101   30101   20101
 
      639     636     637     640     642
        0   10101   40101   20101   30101
 
      640     638     639     643     648
        0   40101   10101   30101   20101
 
      641     627     636     642     644     674
        0   10101   40101   20102   20202   30101
 
      642     639     641     643     644
        0   40101   10101   20101   30101
 
      643     640     642     645     654
        0   40101   10101   30101   20101
 
      644     641     642     645     675
        0   10101   40101   20101   30101
 
      645     643     644     656     676
        0   40101   10101   20101   30101
 
      646     315     638     647     648
        0   40101   10101   20101   30101
 
      647     316     646     649     650
        0   40101   10101   30101   20101
 
      648     640     646     649     654
        0   10101   40101   20101   30101
 
      649     647     648     652     655
        0   40101   10101   20101   30101
 
      650     319     647     651     652
        0   40101   10101   20101   30101
 
      651     320     650     653     724
        0   40101   10101   30101   20101
 
      652     649     650     653     658     659
        0   10101   40101   20101   30102   30202
 
      653     651     652     662     663     726
        0   40101   10101   30102   30202   20101
 
      654     643     648     655     656
        0   10101   40101   20101   30101
 
      655     649     654     657     658     660
        0   40101   10101   30101   20102   20202
 
      656     645     654     657     684
        0   10101   40101   20101   30101
 
      657     655     656     666     668     685
        0   40101   10101   20102   20202   30101
 
      658     652     655     659     660
        0   40101   10101   20101   30101
 
      659     652     658     661     662
        0   40101   10101   30101   20101
 
      660     655     658     661     666
        0   10101   40101   20101   30101
 
      661     659     660     664     667
        0   40101   10101   20101   30101
 
      662     653     659     663     664
        0   40101   10101   20101   30101
 
      663     653     662     665     732
        0   40101   10101   30101   20101
 
      664     661     662     665     670
        0   10101   40101   20101   30101
 
      665     663     664     671     734
        0   40101   10101   30101   20101
 
      666     657     660     667     668
        0   10101   40101   20101   30101
 
      667     661     666     669     670
        0   40101   10101   30101   20101
 
      668     657     666     669     688
        0   10101   40101   20101   30101
 
      669     667     668     672     689
        0   40101   10101   20101   30101
 
      670     664     667     671     672
        0   40101   10101   20101   30101
 
      671     665     670     673     740
        0   40101   10101   30101   20101
 
      672     669     670     673     692
        0   10101   40101   20101   30101
 
      673     671     672     693     742
        0   40101   10101   30101   20101
 
      674     633     641     675     677     679
        0   10101   40101   20102   20202   30101
 
      675     644     674     676     677
        0   40101   10101   20101   30101
 
      676     645     675     678     684
        0   40101   10101   30101   20101
 
      677     674     675     678     680
        0   10101   40101   20101   30101
 
      678     676     677     681     686
        0   40101   10101   30101   20101
 
      679     635     674     680     682    2812
        0   10101   40101   20102   20202   30101
 
      680     677     679     681     682
        0   40101   10101   20101   30101
 
      681     678     680     683     704
        0   40101   10101   30101   20101
 
      682     679     680     683    2813
        0   10101   40101   20101   30101
 
      683     681     682     706    2814
        0   40101   10101   20101   30101
 
      684     656     676     685     686
        0   40101   10101   20101   30101
 
      685     657     684     687     688     690
        0   40101   10101   30101   20102   20202
 
      686     678     684     687     704
        0   10101   40101   20101   30101
 
      687     685     686     696     698     705
        0   40101   10101   20102   20202   30101
 
      688     668     685     689     690
        0   40101   10101   20101   30101
 
      689     669     688     691     692
        0   40101   10101   30101   20101
 
      690     685     688     691     696
        0   10101   40101   20101   30101
 
      691     689     690     694     697
        0   40101   10101   20101   30101
 
      692     672     689     693     694
        0   40101   10101   20101   30101
 
      693     673     692     695     804
        0   40101   10101   30101   20101
 
      694     691     692     695     700
        0   10101   40101   20101   30101
 
      695     693     694     701     806
        0   40101   10101   30101   20101
 
      696     687     690     697     698
        0   10101   40101   20101   30101
 
      697     691     696     699     700
        0   40101   10101   30101   20101
 
      698     687     696     699     708
        0   10101   40101   20101   30101
 
      699     697     698     702     709
        0   40101   10101   20101   30101
 
      700     694     697     701     702
        0   40101   10101   20101   30101
 
      701     695     700     703     812
        0   40101   10101   30101   20101
 
      702     699     700     703     712
        0   10101   40101   20101   30101
 
      703     701     702     713     814
        0   40101   10101   30101   20101
 
      704     681     686     705     706
        0   10101   40101   20101   30101
 
      705     687     704     707     708     710
        0   40101   10101   30101   20102   20202
 
      706     683     704     707    2822
        0   10101   40101   20101   30101
 
      707     705     706     716     718    2823
        0   40101   10101   20102   20202   30101
 
      708     698     705     709     710
        0   40101   10101   20101   30101
 
      709     699     708     711     712
        0   40101   10101   30101   20101
 
      710     705     708     711     716
        0   10101   40101   20101   30101
 
      711     709     710     714     717
        0   40101   10101   20101   30101
 
      712     702     709     713     714
        0   40101   10101   20101   30101
 
      713     703     712     715     836
        0   40101   10101   30101   20101
 
      714     711     712     715     720
        0   10101   40101   20101   30101
 
      715     713     714     721     838
        0   40101   10101   30101   20101
 
      716     707     710     717     718
        0   10101   40101   20101   30101
 
      717     711     716     719     720
        0   40101   10101   30101   20101
 
      718     707     716     719    2826
        0   10101   40101   20101   30101
 
      719     717     718     722    2827
        0   40101   10101   20101   30101
 
      720     714     717     721     722
        0   40101   10101   20101   30101
 
      721     715     720     723     844
        0   40101   10101   30101   20101
 
      722     719     720     723    2830
        0   10101   40101   20101   30101
 
      723     721     722     846    2831
        0   40101   10101   20101   30101
 
      724     339     651     725     726
        0   40101   10101   20101   30101
 
      725     340     724     727     728
        0   40101   10101   30101   20101
 
      726     653     724     727     732     733
        0   10101   40101   20101   30102   30202
 
      727     725     726     730     736     737
        0   40101   10101   20101   30102   30202
 
      728     343     725     729     730
        0   40101   10101   20101   30101
 
      729     344     728     731     764
        0   40101   10101   30101   20101
 
      730     727     728     731     748     749
        0   10101   40101   20101   30102   30202
 
      731     729     730     752     753     766
        0   40101   10101   30102   30202   20101
 
      732     663     726     733     734
        0   10101   40101   20101   30101
 
      733     726     732     735     736
        0   40101   10101   30101   20101
 
      734     665     732     735     740
        0   10101   40101   20101   30101
 
      735     733     734     738     741
        0   40101   10101   20101   30101
 
      736     727     733     737     738
        0   40101   10101   20101   30101
 
      737     727     736     739     748
        0   40101   10101   30101   20101
 
      738     735     736     739     744
        0   10101   40101   20101   30101
 
      739     737     738     745     750
        0   40101   10101   30101   20101
 
      740     671     734     741     742
        0   10101   40101   20101   30101
 
      741     735     740     743     744
        0   40101   10101   30101   20101
 
      742     673     740     743     804
        0   10101   40101   20101   30101
 
      743     741     742     746     805
        0   40101   10101   20101   30101
 
      744     738     741     745     746
        0   40101   10101   20101   30101
 
      745     739     744     747     756
        0   40101   10101   30101   20101
 
      746     743     744     747     808
        0   10101   40101   20101   30101
 
      747     745     746     758     809
        0   40101   10101   20101   30101
 
      748     730     737     749     750
        0   40101   10101   20101   30101
 
      749     730     748     751     752
        0   40101   10101   30101   20101
 
      750     739     748     751     756
        0   10101   40101   20101   30101
 
      751     749     750     754     757
        0   40101   10101   20101   30101
 
      752     731     749     753     754
        0   40101   10101   20101   30101
 
      753     731     752     755     772
        0   40101   10101   30101   20101
 
      754     751     752     755     760
        0   10101   40101   20101   30101
 
      755     753     754     761     774
        0   40101   10101   30101   20101
 
      756     745     750     757     758
        0   10101   40101   20101   30101
 
      757     751     756     759     760
        0   40101   10101   30101   20101
 
      758     747     756     759     820
        0   10101   40101   20101   30101
 
      759     757     758     762     821
        0   40101   10101   20101   30101
 
      760     754     757     761     762
        0   40101   10101   20101   30101
 
      761     755     760     763     780
        0   40101   10101   30101   20101
 
      762     759     760     763     824
        0   10101   40101   20101   30101
 
      763     761     762     782     825
        0   40101   10101   20101   30101
 
      764     355     729     765     766
        0   40101   10101   20101   30101
 
      765     356     764     767     768
        0   40101   10101   30101   20101
 
      766     731     764     767     772     773
        0   10101   40101   20101   30102   30202
 
      767     765     766     770     776     777
        0   40101   10101   20101   30102   30202
 
      768     359     765     769     770
        0   40101   10101   20101   30101
 
      769     360     768     771    1064
        0   40101   10101   30101   20101
 
      770     767     768     771     788     789
        0   10101   40101   20101   30102   30202
 
      771     769     770     792     793    1066
        0   40101   10101   30102   30202   20101
 
      772     753     766     773     774
        0   10101   40101   20101   30101
 
      773     766     772     775     776
        0   40101   10101   30101   20101
 
      774     755     772     775     780
        0   10101   40101   20101   30101
 
      775     773     774     778     781
        0   40101   10101   20101   30101
 
      776     767     773     777     778
        0   40101   10101   20101   30101
 
      777     767     776     779     788
        0   40101   10101   30101   20101
 
      778     775     776     779     784
        0   10101   40101   20101   30101
 
      779     777     778     785     790
        0   40101   10101   30101   20101
 
      780     761     774     781     782
        0   10101   40101   20101   30101
 
      781     775     780     783     784
        0   40101   10101   30101   20101
 
      782     763     780     783     904
        0   10101   40101   20101   30101
 
      783     781     782     786     905
        0   40101   10101   20101   30101
 
      784     778     781     785     786
        0   40101   10101   20101   30101
 
      785     779     784     787     796
        0   40101   10101   30101   20101
 
      786     783     784     787     908
        0   10101   40101   20101   30101
 
      787     785     786     798     909
        0   40101   10101   20101   30101
 
      788     770     777     789     790
        0   40101   10101   20101   30101
 
      789     770     788     791     792
        0   40101   10101   30101   20101
 
      790     779     788     791     796
        0   10101   40101   20101   30101
 
      791     789     790     794     797
        0   40101   10101   20101   30101
 
      792     771     789     793     794
        0   40101   10101   20101   30101
 
      793     771     792     795    1072
        0   40101   10101   30101   20101
 
      794     791     792     795     800
        0   10101   40101   20101   30101
 
      795     793     794     801    1074
        0   40101   10101   30101   20101
 
      796     785     790     797     798
        0   10101   40101   20101   30101
 
      797     791     796     799     800
        0   40101   10101   30101   20101
 
      798     787     796     799     920
        0   10101   40101   20101   30101
 
      799     797     798     802     921
        0   40101   10101   20101   30101
 
      800     794     797     801     802
        0   40101   10101   20101   30101
 
      801     795     800     803    1080
        0   40101   10101   30101   20101
 
      802     799     800     803     924
        0   10101   40101   20101   30101
 
      803     801     802     925    1082
        0   40101   10101   30101   20101
 
      804     693     742     805     806
        0   10101   40101   20101   30101
 
      805     743     804     807     808
        0   40101   10101   30101   20101
 
      806     695     804     807     812
        0   10101   40101   20101   30101
 
      807     805     806     810     813
        0   40101   10101   20101   30101
 
      808     746     805     809     810
        0   40101   10101   20101   30101
 
      809     747     808     811     820
        0   40101   10101   30101   20101
 
      810     807     808     811     816
        0   10101   40101   20101   30101
 
      811     809     810     817     822
        0   40101   10101   30101   20101
 
      812     701     806     813     814
        0   10101   40101   20101   30101
 
      813     807     812     815     816
        0   40101   10101   30101   20101
 
      814     703     812     815     836
        0   10101   40101   20101   30101
 
      815     813     814     818     837
        0   40101   10101   20101   30101
 
      816     810     813     817     818
        0   40101   10101   20101   30101
 
      817     811     816     819     828
        0   40101   10101   30101   20101
 
      818     815     816     819     840
        0   10101   40101   20101   30101
 
      819     817     818     830     841
        0   40101   10101   20101   30101
 
      820     758     809     821     822
        0   40101   10101   20101   30101
 
      821     759     820     823     824
        0   40101   10101   30101   20101
 
      822     811     820     823     828
        0   10101   40101   20101   30101
 
      823     821     822     826     829
        0   40101   10101   20101   30101
 
      824     762     821     825     826
        0   40101   10101   20101   30101
 
      825     763     824     827     904
        0   40101   10101   30101   20101
 
      826     823     824     827     832
        0   10101   40101   20101   30101
 
      827     825     826     833     906
        0   40101   10101   30101   20101
 
      828     817     822     829     830
        0   10101   40101   20101   30101
 
      829     823     828     831     832
        0   40101   10101   30101   20101
 
      830     819     828     831     852
        0   10101   40101   20101   30101
 
      831     829     830     834     853     854
        0   40101   10101   20101   30102   30202
 
      832     826     829     833     834
        0   40101   10101   20101   30101
 
      833     827     832     835     912
        0   40101   10101   30101   20101
 
      834     831     832     835     862     863
        0   10101   40101   20101   30102   30202
 
      835     833     834     866     867     914
        0   40101   10101   30102   30202   20101
 
      836     713     814     837     838
        0   10101   40101   20101   30101
 
      837     815     836     839     840
        0   40101   10101   30101   20101
 
      838     715     836     839     844
        0   10101   40101   20101   30101
 
      839     837     838     842     845
        0   40101   10101   20101   30101
 
      840     818     837     841     842
        0   40101   10101   20101   30101
 
      841     819     840     843     852
        0   40101   10101   30101   20101
 
      842     839     840     843     848
        0   10101   40101   20101   30101
 
      843     841     842     849     857
        0   40101   10101   30101   20101
 
      844     721     838     845     846
        0   10101   40101   20101   30101
 
      845     839     844     847     848
        0   40101   10101   30101   20101
 
      846     723     844     847    2912
        0   10101   40101   20101   30101
 
      847     845     846     850    2913
        0   40101   10101   20101   30101
 
      848     842     845     849     850
        0   40101   10101   20101   30101
 
      849     843     848     851     878
        0   40101   10101   30101   20101
 
      850     847     848     851    2916
        0   10101   40101   20101   30101
 
      851     849     850     883    2917
        0   40101   10101   20101   30101
 
      852     830     841     853     855     857
        0   40101   10101   20102   20202   30101
 
      853     831     852     854     855
        0   40101   10101   20101   30101
 
      854     831     853     856     862
        0   40101   10101   30101   20101
 
      855     852     853     856     858
        0   10101   40101   20101   30101
 
      856     854     855     859     864
        0   40101   10101   30101   20101
 
      857     843     852     858     860     878
        0   10101   40101   20102   20202   30101
 
      858     855     857     859     860
        0   40101   10101   20101   30101
 
      859     856     858     861     870
        0   40101   10101   30101   20101
 
      860     857     858     861     879
        0   10101   40101   20101   30101
 
      861     859     860     872     880
        0   40101   10101   20101   30101
 
      862     834     854     863     864
        0   40101   10101   20101   30101
 
      863     834     862     865     866
        0   40101   10101   30101   20101
 
      864     856     862     865     870
        0   10101   40101   20101   30101
 
      865     863     864     868     871
        0   40101   10101   20101   30101
 
      866     835     863     867     868
        0   40101   10101   20101   30101
 
      867     835     866     869     936
        0   40101   10101   30101   20101
 
      868     865     866     869     874
        0   10101   40101   20101   30101
 
      869     867     868     875     938
        0   40101   10101   30101   20101
 
      870     859     864     871     872
        0   10101   40101   20101   30101
 
      871     865     870     873     874
        0   40101   10101   30101   20101
 
      872     861     870     873     888
        0   10101   40101   20101   30101
 
      873     871     872     876     889
        0   40101   10101   20101   30101
 
      874     868     871     875     876
        0   40101   10101   20101   30101
 
      875     869     874     877     944
        0   40101   10101   30101   20101
 
      876     873     874     877     892
        0   10101   40101   20101   30101
 
      877     875     876     893     946
        0   40101   10101   30101   20101
 
      878     849     857     879     881     883
        0   10101   40101   20102   20202   30101
 
      879     860     878     880     881
        0   40101   10101   20101   30101
 
      880     861     879     882     888
        0   40101   10101   30101   20101
 
      881     878     879     882     884
        0   10101   40101   20101   30101
 
      882     880     881     885     890
        0   40101   10101   30101   20101
 
      883     851     878     884     886    2928
        0   10101   40101   20102   20202   30101
 
      884     881     883     885     886
        0   40101   10101   20101   30101
 
      885     882     884     887     896
        0   40101   10101   30101   20101
 
      886     883     884     887    2929
        0   10101   40101   20101   30101
 
      887     885     886     898    2930
        0   40101   10101   20101   30101
 
      888     872     880     889     890
        0   40101   10101   20101   30101
 
      889     873     888     891     892
        0   40101   10101   30101   20101
 
      890     882     888     891     896
        0   10101   40101   20101   30101
 
      891     889     890     894     897
        0   40101   10101   20101   30101
 
      892     876     889     893     894
        0   40101   10101   20101   30101
 
      893     877     892     895     968
        0   40101   10101   30101   20101
 
      894     891     892     895     900
        0   10101   40101   20101   30101
 
      895     893     894     901     970
        0   40101   10101   30101   20101
 
      896     885     890     897     898
        0   10101   40101   20101   30101
 
      897     891     896     899     900
        0   40101   10101   30101   20101
 
      898     887     896     899    2938
        0   10101   40101   20101   30101
 
      899     897     898     902    2939
        0   40101   10101   20101   30101
 
      900     894     897     901     902
        0   40101   10101   20101   30101
 
      901     895     900     903     976
        0   40101   10101   30101   20101
 
      902     899     900     903    2942
        0   10101   40101   20101   30101
 
      903     901     902     978    2943
        0   40101   10101   20101   30101
 
      904     782     825     905     906
        0   40101   10101   20101   30101
 
      905     783     904     907     908
        0   40101   10101   30101   20101
 
      906     827     904     907     912
        0   10101   40101   20101   30101
 
      907     905     906     910     913
        0   40101   10101   20101   30101
 
      908     786     905     909     910
        0   40101   10101   20101   30101
 
      909     787     908     911     920
        0   40101   10101   30101   20101
 
      910     907     908     911     916
        0   10101   40101   20101   30101
 
      911     909     910     917     922
        0   40101   10101   30101   20101
 
      912     833     906     913     914
        0   10101   40101   20101   30101
 
      913     907     912     915     916
        0   40101   10101   30101   20101
 
      914     835     912     915     936     937
        0   10101   40101   20101   30102   30202
 
      915     913     914     918     940     941
        0   40101   10101   20101   30102   30202
 
      916     910     913     917     918
        0   40101   10101   20101   30101
 
      917     911     916     919     928
        0   40101   10101   30101   20101
 
      918     915     916     919     952     953
        0   10101   40101   20101   30102   30202
 
      919     917     918     930     956     957
        0   40101   10101   20101   30102   30202
 
      920     798     909     921     922
[...]
 
    26441   26438   26439   26442   26501
        0   10101   40101   20101   30101
 
    26442   26440   26441   26445   26502
        0   40101   10101   20101   30101
 
    26443   26375   26440   26444   26445
        0   40101   10101   20101   30101
 
    26444   26376   26443   26446   26447
        0   40101   10101   30101   20101
 
    26445   26442   26443   26446   26505
        0   10101   40101   20101   30101
 
    26446   26444   26445   26449   26506
        0   40101   10101   20101   30101
 
    26447   26379   26444   26448   26449
        0   40101   10101   20101   30101
 
    26448   26380   26447   26450   26451
        0   40101   10101   30101   20101
 
    26449   26446   26447   26450   26509
        0   10101   40101   20101   30101
 
    26450   26448   26449   26453   26510
        0   40101   10101   20101   30101
 
    26451   26383   26448   26452   26453
        0   40101   10101   20101   30101
 
    26452   26384   26451   26454   26455
        0   40101   10101   30101   20101
 
    26453   26450   26451   26454   26513
        0   10101   40101   20101   30101
 
    26454   26452   26453   26457   26514
        0   40101   10101   20101   30101
 
    26455   26387   26452   26456   26457
        0   40101   10101   20101   30101
 
    26456   26388   26455   26458   26459
        0   40101   10101   30101   20101
 
    26457   26454   26455   26458   26517
        0   10101   40101   20101   30101
 
    26458   26456   26457   26461   26518
        0   40101   10101   20101   30101
 
    26459   26391   26456   26460   26461
        0   40101   10101   20101   30101
 
    26460   26392   26459   26462   26463
        0   40101   10101   30101   20101
 
    26461   26458   26459   26462   26521
        0   10101   40101   20101   30101
 
    26462   26460   26461   26465   26522
        0   40101   10101   20101   30101
 
    26463   26395   26460   26464   26465
        0   40101   10101   20101   30101
 
    26464   26396   26463   26466   26467
        0   40101   10101   30101   20101
 
    26465   26462   26463   26466   26525
        0   10101   40101   20101   30101
 
    26466   26464   26465   26469   26526
        0   40101   10101   20101   30101
 
    26467   26399   26464   26468   26469
        0   40101   10101   20101   30101
 
    26468   26400   26467   26470   26471
        0   40101   10101   30101   20101
 
    26469   26466   26467   26470   26529
        0   10101   40101   20101   30101
 
    26470   26468   26469   26473   26530
        0   40101   10101   20101   30101
 
    26471   26403   26468   26472   26473
        0   40101   10101   20101   30101
 
    26472   26404   26471   26474   26475
        0   40101   10101   30101   20101
 
    26473   26470   26471   26474   26533
        0   10101   40101   20101   30101
 
    26474   26472   26473   26477   26534
        0   40101   10101   20101   30101
 
    26475   26407   26472   26476   26477
        0   40101   10101   20101   30101
 
    26476   26408   26475   26478   26479
        0   40101   10101   30101   20101
 
    26477   26474   26475   26478   26537
        0   10101   40101   20101   30101
 
    26478   26476   26477   26481   26538
        0   40101   10101   20101   30101
 
    26479   26411   26476   26480   26481
        0   40101   10101   20101   30101
 
    26480   26412   26479   26482   26483
        0   40101   10101   30101   20101
 
    26481   26478   26479   26482   26541
        0   10101   40101   20101   30101
 
    26482   26480   26481   26485   26542
        0   40101   10101   20101   30101
 
    26483   26415   26480   26484   26485
        0   40101   10101   20101   30101
 
    26484   26416   26483   26486   26487
        0   40101   10101   30101   20101
 
    26485   26482   26483   26486   26544
        0   10101   40101   20101   30101
 
    26486   26484   26485
        0   40101   10101
 
    26487   26419   26484
        0   40101   10101
 
    26488   26426   26489
        0   40101   20101
 
    26489   26429   26488   26490   26491
        0   40101   10101   20101   30101
 
    26490   26430   26489   26492   26493
        0   40101   10101   30101   20101
 
    26491   26489   26492
        0   40101   20101
 
    26492   26490   26491   26495
        0   40101   10101   20101
 
    26493   26433   26490   26494   26495
        0   40101   10101   20101   30101
 
    26494   26434   26493   26496   26497
        0   40101   10101   30101   20101
 
    26495   26492   26493   26496   26545
        0   10101   40101   20101   30101
 
    26496   26494   26495   26499   26546
        0   40101   10101   20101   30101
 
    26497   26437   26494   26498   26499
        0   40101   10101   20101   30101
 
    26498   26438   26497   26500   26501
        0   40101   10101   30101   20101
 
    26499   26496   26497   26500   26547
        0   10101   40101   20101   30101
 
    26500   26498   26499   26503   26548
        0   40101   10101   20101   30101
 
    26501   26441   26498   26502   26503
        0   40101   10101   20101   30101
 
    26502   26442   26501   26504   26505
        0   40101   10101   30101   20101
 
    26503   26500   26501   26504   26551
        0   10101   40101   20101   30101
 
    26504   26502   26503   26507   26552
        0   40101   10101   20101   30101
 
    26505   26445   26502   26506   26507
        0   40101   10101   20101   30101
 
    26506   26446   26505   26508   26509
        0   40101   10101   30101   20101
 
    26507   26504   26505   26508   26555
        0   10101   40101   20101   30101
 
    26508   26506   26507   26511   26556
        0   40101   10101   20101   30101
 
    26509   26449   26506   26510   26511
        0   40101   10101   20101   30101
 
    26510   26450   26509   26512   26513
        0   40101   10101   30101   20101
 
    26511   26508   26509   26512   26559
        0   10101   40101   20101   30101
 
    26512   26510   26511   26515   26560
        0   40101   10101   20101   30101
 
    26513   26453   26510   26514   26515
        0   40101   10101   20101   30101
 
    26514   26454   26513   26516   26517
        0   40101   10101   30101   20101
 
    26515   26512   26513   26516   26563
        0   10101   40101   20101   30101
 
    26516   26514   26515   26519   26564
        0   40101   10101   20101   30101
 
    26517   26457   26514   26518   26519
        0   40101   10101   20101   30101
 
    26518   26458   26517   26520   26521
        0   40101   10101   30101   20101
 
    26519   26516   26517   26520   26567
        0   10101   40101   20101   30101
 
    26520   26518   26519   26523   26568
        0   40101   10101   20101   30101
 
    26521   26461   26518   26522   26523
        0   40101   10101   20101   30101
 
    26522   26462   26521   26524   26525
        0   40101   10101   30101   20101
 
    26523   26520   26521   26524   26571
        0   10101   40101   20101   30101
 
    26524   26522   26523   26527   26572
        0   40101   10101   20101   30101
 
    26525   26465   26522   26526   26527
        0   40101   10101   20101   30101
 
    26526   26466   26525   26528   26529
        0   40101   10101   30101   20101
 
    26527   26524   26525   26528   26575
        0   10101   40101   20101   30101
 
    26528   26526   26527   26531   26576
        0   40101   10101   20101   30101
 
    26529   26469   26526   26530   26531
        0   40101   10101   20101   30101
 
    26530   26470   26529   26532   26533
        0   40101   10101   30101   20101
 
    26531   26528   26529   26532   26579
        0   10101   40101   20101   30101
 
    26532   26530   26531   26535   26580
        0   40101   10101   20101   30101
 
    26533   26473   26530   26534   26535
        0   40101   10101   20101   30101
 
    26534   26474   26533   26536   26537
        0   40101   10101   30101   20101
 
    26535   26532   26533   26536   26583
        0   10101   40101   20101   30101
 
    26536   26534   26535   26539   26584
        0   40101   10101   20101   30101
 
    26537   26477   26534   26538   26539
        0   40101   10101   20101   30101
 
    26538   26478   26537   26540   26541
        0   40101   10101   30101   20101
 
    26539   26536   26537   26540   26587
        0   10101   40101   20101   30101
 
    26540   26538   26539   26543   26588
        0   40101   10101   20101   30101
 
    26541   26481   26538   26542   26543
        0   40101   10101   20101   30101
 
    26542   26482   26541   26544
        0   40101   10101   20101
 
    26543   26540   26541
        0   10101   40101
 
    26544   26485   26542
        0   40101   10101
 
    26545   26495   26546
        0   40101   20101
 
    26546   26496   26545   26547
        0   40101   10101   20101
 
    26547   26499   26546   26548   26549
        0   40101   10101   20101   30101
 
    26548   26500   26547   26550   26551
        0   40101   10101   30101   20101
 
    26549   26547   26550
        0   40101   20101
 
    26550   26548   26549   26553   26590
        0   40101   10101   20101   30101
 
    26551   26503   26548   26552   26553
        0   40101   10101   20101   30101
 
    26552   26504   26551   26554   26555
        0   40101   10101   30101   20101
 
    26553   26550   26551   26554   26591
        0   10101   40101   20101   30101
 
    26554   26552   26553   26557   26592
        0   40101   10101   20101   30101
 
    26555   26507   26552   26556   26557
        0   40101   10101   20101   30101
 
    26556   26508   26555   26558   26559
        0   40101   10101   30101   20101
 
    26557   26554   26555   26558   26595
        0   10101   40101   20101   30101
 
    26558   26556   26557   26561   26596
        0   40101   10101   20101   30101
 
    26559   26511   26556   26560   26561
        0   40101   10101   20101   30101
 
    26560   26512   26559   26562   26563
        0   40101   10101   30101   20101
 
    26561   26558   26559   26562   26599
        0   10101   40101   20101   30101
 
    26562   26560   26561   26565   26600
        0   40101   10101   20101   30101
 
    26563   26515   26560   26564   26565
        0   40101   10101   20101   30101
 
    26564   26516   26563   26566   26567
        0   40101   10101   30101   20101
 
    26565   26562   26563   26566   26603
        0   10101   40101   20101   30101
 
    26566   26564   26565   26569   26604
        0   40101   10101   20101   30101
 
    26567   26519   26564   26568   26569
        0   40101   10101   20101   30101
 
    26568   26520   26567   26570   26571
        0   40101   10101   30101   20101
 
    26569   26566   26567   26570   26607
        0   10101   40101   20101   30101
 
    26570   26568   26569   26573   26608
        0   40101   10101   20101   30101
 
    26571   26523   26568   26572   26573
        0   40101   10101   20101   30101
 
    26572   26524   26571   26574   26575
        0   40101   10101   30101   20101
 
    26573   26570   26571   26574   26611
        0   10101   40101   20101   30101
 
    26574   26572   26573   26577   26612
        0   40101   10101   20101   30101
 
    26575   26527   26572   26576   26577
        0   40101   10101   20101   30101
 
    26576   26528   26575   26578   26579
        0   40101   10101   30101   20101
 
    26577   26574   26575   26578   26615
        0   10101   40101   20101   30101
 
    26578   26576   26577   26581   26616
        0   40101   10101   20101   30101
 
    26579   26531   26576   26580   26581
        0   40101   10101   20101   30101
 
    26580   26532   26579   26582   26583
        0   40101   10101   30101   20101
 
    26581   26578   26579   26582   26619
        0   10101   40101   20101   30101
 
    26582   26580   26581   26585   26620
        0   40101   10101   20101   30101
 
    26583   26535   26580   26584   26585
        0   40101   10101   20101   30101
 
    26584   26536   26583   26586   26587
        0   40101   10101   30101   20101
 
    26585   26582   26583   26586   26623
        0   10101   40101   20101   30101
 
    26586   26584   26585   26589
        0   40101   10101   20101
 
    26587   26539   26584   26588   26589
        0   40101   10101   20101   30101
 
    26588   26540   26587
        0   40101   10101
 
    26589   26586   26587
        0   10101   40101
 
    26590   26550   26591
        0   40101   20101
 
    26591   26553   26590   26592   26593
        0   40101   10101   20101   30101
 
    26592   26554   26591   26594   26595
        0   40101   10101   30101   20101
 
    26593   26591   26594
        0   40101   20101
 
    26594   26592   26593   26597   26624
        0   40101   10101   20101   30101
 
    26595   26557   26592   26596   26597
        0   40101   10101   20101   30101
 
    26596   26558   26595   26598   26599
        0   40101   10101   30101   20101
 
    26597   26594   26595   26598   26625
        0   10101   40101   20101   30101
 
    26598   26596   26597   26601   26626
        0   40101   10101   20101   30101
 
    26599   26561   26596   26600   26601
        0   40101   10101   20101   30101
 
    26600   26562   26599   26602   26603
        0   40101   10101   30101   20101
 
    26601   26598   26599   26602   26629
        0   10101   40101   20101   30101
 
    26602   26600   26601   26605   26630
        0   40101   10101   20101   30101
 
    26603   26565   26600   26604   26605
        0   40101   10101   20101   30101
 
    26604   26566   26603   26606   26607
        0   40101   10101   30101   20101
 
    26605   26602   26603   26606   26633
        0   10101   40101   20101   30101
 
    26606   26604   26605   26609   26634
        0   40101   10101   20101   30101
 
    26607   26569   26604   26608   26609
        0   40101   10101   20101   30101
 
    26608   26570   26607   26610   26611
        0   40101   10101   30101   20101
 
    26609   26606   26607   26610   26637
        0   10101   40101   20101   30101
 
    26610   26608   26609   26613   26638
        0   40101   10101   20101   30101
 
    26611   26573   26608   26612   26613
        0   40101   10101   20101   30101
 
    26612   26574   26611   26614   26615
        0   40101   10101   30101   20101
 
    26613   26610   26611   26614   26641
        0   10101   40101   20101   30101
 
    26614   26612   26613   26617   26642
        0   40101   10101   20101   30101
 
    26615   26577   26612   26616   26617
        0   40101   10101   20101   30101
 
    26616   26578   26615   26618   26619
        0   40101   10101   30101   20101
 
    26617   26614   26615   26618   26645
        0   10101   40101   20101   30101
 
    26618   26616   26617   26621   26646
        0   40101   10101   20101   30101
 
    26619   26581   26616   26620   26621
        0   40101   10101   20101   30101
 
    26620   26582   26619   26622   26623
        0   40101   10101   30101   20101
 
    26621   26618   26619   26622   26649
        0   10101   40101   20101   30101
 
    26622   26620   26621
        0   40101   10101
 
    26623   26585   26620
        0   40101   10101
 
    26624   26594   26625
        0   40101   20101
 
    26625   26597   26624   26626   26627
        0   40101   10101   20101   30101
 
    26626   26598   26625   26628   26629
        0   40101   10101   30101   20101
 
    26627   26625   26628
        0   40101   20101
 
    26628   26626   26627   26631   26650
        0   40101   10101   20101   30101
 
    26629   26601   26626   26630   26631
        0   40101   10101   20101   30101
 
    26630   26602   26629   26632   26633
        0   40101   10101   30101   20101
 
    26631   26628   26629   26632   26652
        0   10101   40101   20101   30101
 
    26632   26630   26631   26635   26653
        0   40101   10101   20101   30101
 
    26633   26605   26630   26634   26635
        0   40101   10101   20101   30101
 
    26634   26606   26633   26636   26637
        0   40101   10101   30101   20101
 
    26635   26632   26633   26636   26656
        0   10101   40101   20101   30101
 
    26636   26634   26635   26639   26657
        0   40101   10101   20101   30101
 
    26637   26609   26634   26638   26639
        0   40101   10101   20101   30101
 
    26638   26610   26637   26640   26641
        0   40101   10101   30101   20101
 
    26639   26636   26637   26640   26660
        0   10101   40101   20101   30101
 
    26640   26638   26639   26643   26661
        0   40101   10101   20101   30101
 
    26641   26613   26638   26642   26643
        0   40101   10101   20101   30101
 
    26642   26614   26641   26644   26645
        0   40101   10101   30101   20101
 
    26643   26640   26641   26644   26664
        0   10101   40101   20101   30101
 
    26644   26642   26643   26647   26665
        0   40101   10101   20101   30101
 
    26645   26617   26642   26646   26647
        0   40101   10101   20101   30101
 
    26646   26618   26645   26648   26649
        0   40101   10101   30101   20101
 
    26647   26644   26645   26648
        0   10101   40101   20101
 
    26648   26646   26647
        0   40101   10101
 
    26649   26621   26646
        0   40101   10101
 
    26650   26628   26651   26652
        0   40101   30101   20101
 
    26651   26650   26654
        0   40101   20101
 
    26652   26631   26650   26653   26654
        0   40101   10101   20101   30101
 
    26653   26632   26652   26655   26656
        0   40101   10101   30101   20101
 
    26654   26651   26652   26655   26667
        0   10101   40101   20101   30101
 
    26655   26653   26654   26658   26668
        0   40101   10101   20101   30101
 
    26656   26635   26653   26657   26658
        0   40101   10101   20101   30101
 
    26657   26636   26656   26659   26660
        0   40101   10101   30101   20101
 
    26658   26655   26656   26659   26671
        0   10101   40101   20101   30101
 
    26659   26657   26658   26662   26672
        0   40101   10101   20101   30101
 
    26660   26639   26657   26661   26662
        0   40101   10101   20101   30101
 
    26661   26640   26660   26663   26664
        0   40101   10101   30101   20101
 
    26662   26659   26660   26663   26674
        0   10101   40101   20101   30101
 
    26663   26661   26662   26666
        0   40101   10101   20101
 
    26664   26643   26661   26665   26666
        0   40101   10101   20101   30101
 
    26665   26644   26664
        0   40101   10101
 
    26666   26663   26664
        0   10101   40101
 
    26667   26654   26668   26669
        0   40101   20101   30101
 
    26668   26655   26667   26670   26671
        0   40101   10101   30101   20101
 
    26669   26667   26670
        0   40101   20101
 
    26670   26668   26669   26673
        0   40101   10101   20101
 
    26671   26658   26668   26672   26673
        0   40101   10101   20101   30101
 
    26672   26659   26671   26674
        0   40101   10101   20101
 
    26673   26670   26671
        0   10101   40101
 
    26674   26662   26672
        0   40101   10101
 
Allocate budget reader component.
Open budget file in budget reader.
Allocate head reader component.
Open head file in head reader component.
Allocate MODPATH basic data component.
Read MODPATH basic data component.
Read the remainder of the MODPATH simulation data component.
Allocate particle tracking engine component.
Compute range of time steps. Prepare for time step loop                                                                             
Begin TIME_STEP_LOOP
Compute TSMAX                                                                                                                       
Begin TRACKING_INTERVAL_LOOP
Exit TRACKING_INTERVAL_LOOP
Exit TIME_STEP_LOOP
Write endpoint file.
Consolidating pathline segments.
Begin memory deallocation.
Memory deallocation complete.
