Get the name of the MODPATH simulation file.
Read the first two records of the simulation file to get mpnamFile and mplistFile ...
Allocate rectangular unstructured grid component.
Allocate time discretization data component ...
Allocate disvMf6Grid.
Read DISV binary grid file.
Read time discretization data component ...
 
 ----------------------------------------------------------
 Cell connection data:
 ----------------------------------------------------------
 Format has two lines for each cell, listed by cell number.
 Line 1: Cell connections
 Line 1: Face assignment codes
 ----------------------------------------------------------
        1       2      97
        0   20101   30101
 
        2       1       3      98
        0   10101   20101   30101
 
        3       2       4      99
        0   10101   20101   30101
 
        4       3       5     100
        0   10101   20101   30101
 
        5       4       6     101
        0   10101   20101   30101
 
        6       5       7     102
        0   10101   20101   30101
 
        7       6       8     103
        0   10101   20101   30101
 
        8       7       9     104
        0   10101   20101   30101
 
        9       8      10     105
        0   10101   20101   30101
 
       10       9      11     106
        0   10101   20101   30101
 
       11      10      12     107
        0   10101   20101   30101
 
       12      11      13     108
        0   10101   20101   30101
 
       13      12      14     109
        0   10101   20101   30101
 
       14      13      15     110
        0   10101   20101   30101
 
       15      14      16     111
        0   10101   20101   30101
 
       16      15      17     112
        0   10101   20101   30101
 
       17      16      18     113
        0   10101   20101   30101
 
       18      17      19     114
        0   10101   20101   30101
 
       19      18      20     115
        0   10101   20101   30101
 
       20      19      21     116
        0   10101   20101   30101
 
       21      20      22     117
        0   10101   20101   30101
 
       22      21      23     118
        0   10101   20101   30101
 
       23      22      24     119
        0   10101   20101   30101
 
       24      23      25     120
        0   10101   20101   30101
 
       25      24      26     121
        0   10101   20101   30101
 
       26      25      27     122
        0   10101   20101   30101
 
       27      26      28     123
        0   10101   20101   30101
 
       28      27      29     124
        0   10101   20101   30101
 
       29      28      30     125
        0   10101   20101   30101
 
       30      29      31     126
        0   10101   20101   30101
 
       31      30      32     127
        0   10101   20101   30101
 
       32      31      33     128
        0   10101   20101   30101
 
       33      32      34     129
        0   10101   20101   30101
 
       34      33      35     130
        0   10101   20101   30101
 
       35      34      36     131
        0   10101   20101   30101
 
       36      35      37      39     132
        0   10101   20102   20202   30101
 
       37      36      38      39
        0   10101   20101   30101
 
       38      37      40      41      43
        0   10101   30101   20102   20202
 
       39      36      37      40     133
        0   10101   40101   20101   30101
 
       40      38      39      49      51     134
        0   40101   10101   20102   20202   30101
 
       41      38      42      43
        0   10101   20101   30101
 
       42      41      44      45
        0   10101   30101   20101
 
       43      38      41      44      49
        0   10101   40101   20101   30101
 
       44      42      43      47      50
        0   40101   10101   20101   30101
 
       45      42      46      47
        0   10101   20101   30101
 
       46      45      48      57
        0   10101   30101   20101
 
       47      44      45      48      53
        0   10101   40101   20101   30101
 
       48      46      47      54      57
        0   40101   10101   30101   20101
 
       49      40      43      50      51
        0   10101   40101   20101   30101
 
       50      44      49      52      53
        0   40101   10101   30101   20101
 
       51      40      49      52     137
        0   10101   40101   20101   30101
 
       52      50      51      55     138
        0   40101   10101   20101   30101
 
       53      47      50      54      55
        0   40101   10101   20101   30101
 
       54      48      53      56      59
        0   40101   10101   30101   20101
 
       55      52      53      56     141
        0   10101   40101   20101   30101
 
       56      54      55      59     142
        0   40101   10101   20101   30101
 
       57      46      48      58      59
        0   10102   10202   20101   30101
 
       58      57      60      61
        0   10101   30101   20101
 
       59      54      56      57      60     153
        0   10102   10202   40101   20101   30101
 
       60      58      59      61     154
        0   40101   10101   20101   30101
 
       61      58      60      62     157
        0   10102   10202   20101   30101
 
       62      61      63     158
        0   10101   20101   30101
 
       63      62      64     159
        0   10101   20101   30101
 
       64      63      65     160
        0   10101   20101   30101
 
       65      64      66     161
        0   10101   20101   30101
 
       66      65      67     162
        0   10101   20101   30101
 
       67      66      68     163
        0   10101   20101   30101
 
       68      67      69     164
        0   10101   20101   30101
 
       69      68      70     165
        0   10101   20101   30101
 
       70      69      71     166
        0   10101   20101   30101
 
       71      70      72     167
        0   10101   20101   30101
 
       72      71      73     168
        0   10101   20101   30101
 
       73      72      74     169
        0   10101   20101   30101
 
       74      73      75     170
        0   10101   20101   30101
 
       75      74      76     171
        0   10101   20101   30101
 
       76      75      77     172
        0   10101   20101   30101
 
       77      76      78     173
        0   10101   20101   30101
 
       78      77      79     174
        0   10101   20101   30101
 
       79      78      80     175
        0   10101   20101   30101
 
       80      79      81     176
        0   10101   20101   30101
 
       81      80      82     177
        0   10101   20101   30101
 
       82      81      83     178
        0   10101   20101   30101
 
       83      82      84     179
        0   10101   20101   30101
 
       84      83      85     180
        0   10101   20101   30101
 
       85      84      86     181
        0   10101   20101   30101
 
       86      85      87     182
        0   10101   20101   30101
 
       87      86      88     183
        0   10101   20101   30101
 
       88      87      89     184
        0   10101   20101   30101
 
       89      88      90     185
        0   10101   20101   30101
 
       90      89      91     186
        0   10101   20101   30101
 
       91      90      92     187
        0   10101   20101   30101
 
       92      91      93     188
        0   10101   20101   30101
 
       93      92      94     189
        0   10101   20101   30101
 
       94      93      95     190
        0   10101   20101   30101
 
       95      94      96     191
        0   10101   20101   30101
 
       96      95     192
        0   10101   30101
 
       97       1      98     193
        0   40101   20101   30101
 
       98       2      97      99     194
        0   40101   10101   20101   30101
 
       99       3      98     100     195
        0   40101   10101   20101   30101
 
      100       4      99     101     196
        0   40101   10101   20101   30101
 
      101       5     100     102     197
        0   40101   10101   20101   30101
 
      102       6     101     103     198
        0   40101   10101   20101   30101
 
      103       7     102     104     199
        0   40101   10101   20101   30101
 
      104       8     103     105     200
        0   40101   10101   20101   30101
 
      105       9     104     106     201
        0   40101   10101   20101   30101
 
      106      10     105     107     202
        0   40101   10101   20101   30101
 
      107      11     106     108     203
        0   40101   10101   20101   30101
 
      108      12     107     109     204
        0   40101   10101   20101   30101
 
      109      13     108     110     205
        0   40101   10101   20101   30101
 
      110      14     109     111     206
        0   40101   10101   20101   30101
 
      111      15     110     112     207
        0   40101   10101   20101   30101
 
      112      16     111     113     208
        0   40101   10101   20101   30101
 
      113      17     112     114     209
        0   40101   10101   20101   30101
 
      114      18     113     115     210
        0   40101   10101   20101   30101
 
      115      19     114     116     211
        0   40101   10101   20101   30101
 
      116      20     115     117     212
        0   40101   10101   20101   30101
 
      117      21     116     118     213
        0   40101   10101   20101   30101
 
      118      22     117     119     214
        0   40101   10101   20101   30101
 
      119      23     118     120     215
        0   40101   10101   20101   30101
 
      120      24     119     121     216
        0   40101   10101   20101   30101
 
      121      25     120     122     217
        0   40101   10101   20101   30101
 
      122      26     121     123     218
        0   40101   10101   20101   30101
 
      123      27     122     124     219
        0   40101   10101   20101   30101
 
      124      28     123     125     220
        0   40101   10101   20101   30101
 
      125      29     124     126     221
        0   40101   10101   20101   30101
 
      126      30     125     127     222
        0   40101   10101   20101   30101
 
      127      31     126     128     223
        0   40101   10101   20101   30101
 
      128      32     127     129     224
        0   40101   10101   20101   30101
 
      129      33     128     130     225
        0   40101   10101   20101   30101
 
      130      34     129     131     226
        0   40101   10101   20101   30101
 
      131      35     130     132     227
        0   40101   10101   20101   30101
 
      132      36     131     133     135     228
        0   40101   10101   20102   20202   30101
 
      133      39     132     134     135
        0   40101   10101   20101   30101
 
      134      40     133     136     137     139
        0   40101   10101   30101   20102   20202
 
      135     132     133     136     229
        0   10101   40101   20101   30101
 
      136     134     135     145     147     230
        0   40101   10101   20102   20202   30101
 
      137      51     134     138     139
        0   40101   10101   20101   30101
 
      138      52     137     140     141
        0   40101   10101   30101   20101
 
      139     134     137     140     145
        0   10101   40101   20101   30101
 
      140     138     139     143     146
        0   40101   10101   20101   30101
 
      141      55     138     142     143
        0   40101   10101   20101   30101
 
      142      56     141     144     153
        0   40101   10101   30101   20101
 
      143     140     141     144     149
        0   10101   40101   20101   30101
 
      144     142     143     150     153
        0   40101   10101   30101   20101
 
      145     136     139     146     147
        0   10101   40101   20101   30101
 
      146     140     145     148     149
        0   40101   10101   30101   20101
 
      147     136     145     148     233
        0   10101   40101   20101   30101
 
      148     146     147     151     234
        0   40101   10101   20101   30101
 
      149     143     146     150     151
        0   40101   10101   20101   30101
 
      150     144     149     152     155
        0   40101   10101   30101   20101
 
      151     148     149     152     237
        0   10101   40101   20101   30101
 
      152     150     151     155     238
        0   40101   10101   20101   30101
 
      153      59     142     144     154     155
        0   40101   10102   10202   20101   30101
 
      154      60     153     156     157
        0   40101   10101   30101   20101
 
      155     150     152     153     156     249
        0   10102   10202   40101   20101   30101
 
      156     154     155     157     250
        0   40101   10101   20101   30101
 
      157      61     154     156     158     253
        0   40101   10102   10202   20101   30101
 
      158      62     157     159     254
        0   40101   10101   20101   30101
 
      159      63     158     160     255
        0   40101   10101   20101   30101
 
      160      64     159     161     256
        0   40101   10101   20101   30101
 
      161      65     160     162     257
        0   40101   10101   20101   30101
 
      162      66     161     163     258
        0   40101   10101   20101   30101
 
      163      67     162     164     259
        0   40101   10101   20101   30101
 
      164      68     163     165     260
        0   40101   10101   20101   30101
 
      165      69     164     166     261
        0   40101   10101   20101   30101
 
      166      70     165     167     262
        0   40101   10101   20101   30101
 
      167      71     166     168     263
        0   40101   10101   20101   30101
 
      168      72     167     169     264
        0   40101   10101   20101   30101
 
      169      73     168     170     265
        0   40101   10101   20101   30101
 
      170      74     169     171     266
        0   40101   10101   20101   30101
 
      171      75     170     172     267
        0   40101   10101   20101   30101
 
      172      76     171     173     268
        0   40101   10101   20101   30101
 
      173      77     172     174     269
        0   40101   10101   20101   30101
 
      174      78     173     175     270
        0   40101   10101   20101   30101
 
      175      79     174     176     271
        0   40101   10101   20101   30101
 
      176      80     175     177     272
        0   40101   10101   20101   30101
 
      177      81     176     178     273
        0   40101   10101   20101   30101
 
      178      82     177     179     274
        0   40101   10101   20101   30101
 
      179      83     178     180     275
        0   40101   10101   20101   30101
 
      180      84     179     181     276
        0   40101   10101   20101   30101
 
      181      85     180     182     277
        0   40101   10101   20101   30101
 
      182      86     181     183     278
        0   40101   10101   20101   30101
 
      183      87     182     184     279
        0   40101   10101   20101   30101
 
      184      88     183     185     280
        0   40101   10101   20101   30101
 
      185      89     184     186     281
        0   40101   10101   20101   30101
 
      186      90     185     187     282
        0   40101   10101   20101   30101
 
      187      91     186     188     283
        0   40101   10101   20101   30101
 
      188      92     187     189     284
        0   40101   10101   20101   30101
 
      189      93     188     190     285
        0   40101   10101   20101   30101
 
      190      94     189     191     286
        0   40101   10101   20101   30101
 
      191      95     190     192     287
        0   40101   10101   20101   30101
 
      192      96     191     288
        0   40101   10101   30101
 
      193      97     194     289
        0   40101   20101   30101
 
      194      98     193     195     290
        0   40101   10101   20101   30101
 
      195      99     194     196     291
        0   40101   10101   20101   30101
 
      196     100     195     197     292
        0   40101   10101   20101   30101
 
      197     101     196     198     293
        0   40101   10101   20101   30101
 
      198     102     197     199     294
        0   40101   10101   20101   30101
 
      199     103     198     200     295
        0   40101   10101   20101   30101
 
      200     104     199     201     296
        0   40101   10101   20101   30101
 
      201     105     200     202     297
        0   40101   10101   20101   30101
 
      202     106     201     203     298
        0   40101   10101   20101   30101
 
      203     107     202     204     299
        0   40101   10101   20101   30101
 
      204     108     203     205     300
        0   40101   10101   20101   30101
 
      205     109     204     206     301
        0   40101   10101   20101   30101
 
      206     110     205     207     302
        0   40101   10101   20101   30101
 
      207     111     206     208     303
        0   40101   10101   20101   30101
 
      208     112     207     209     304
        0   40101   10101   20101   30101
 
      209     113     208     210     305
        0   40101   10101   20101   30101
 
      210     114     209     211     306
        0   40101   10101   20101   30101
 
      211     115     210     212     307
        0   40101   10101   20101   30101
 
      212     116     211     213     308
        0   40101   10101   20101   30101
 
      213     117     212     214     309
        0   40101   10101   20101   30101
 
      214     118     213     215     310
        0   40101   10101   20101   30101
 
      215     119     214     216     311
        0   40101   10101   20101   30101
 
      216     120     215     217     312
        0   40101   10101   20101   30101
 
      217     121     216     218     313
        0   40101   10101   20101   30101
 
      218     122     217     219     314
        0   40101   10101   20101   30101
 
      219     123     218     220     315
        0   40101   10101   20101   30101
 
      220     124     219     221     316
        0   40101   10101   20101   30101
 
      221     125     220     222     317
        0   40101   10101   20101   30101
 
      222     126     221     223     318
        0   40101   10101   20101   30101
 
      223     127     222     224     319
        0   40101   10101   20101   30101
 
      224     128     223     225     320
        0   40101   10101   20101   30101
 
      225     129     224     226     321
        0   40101   10101   20101   30101
 
      226     130     225     227     322
        0   40101   10101   20101   30101
 
      227     131     226     228     323
        0   40101   10101   20101   30101
 
      228     132     227     229     231     324
        0   40101   10101   20102   20202   30101
 
      229     135     228     230     231
        0   40101   10101   20101   30101
 
      230     136     229     232     233     235
        0   40101   10101   30101   20102   20202
 
      231     228     229     232     325
        0   10101   40101   20101   30101
 
      232     230     231     241     243     326
        0   40101   10101   20102   20202   30101
 
      233     147     230     234     235
        0   40101   10101   20101   30101
 
      234     148     233     236     237
        0   40101   10101   30101   20101
 
      235     230     233     236     241
        0   10101   40101   20101   30101
 
      236     234     235     239     242
        0   40101   10101   20101   30101
 
      237     151     234     238     239
        0   40101   10101   20101   30101
 
      238     152     237     240     249
        0   40101   10101   30101   20101
 
      239     236     237     240     245
        0   10101   40101   20101   30101
 
      240     238     239     246     249
        0   40101   10101   30101   20101
 
      241     232     235     242     243
        0   10101   40101   20101   30101
 
      242     236     241     244     245
        0   40101   10101   30101   20101
 
      243     232     241     244     329
        0   10101   40101   20101   30101
 
      244     242     243     247     330
        0   40101   10101   20101   30101
 
      245     239     242     246     247
        0   40101   10101   20101   30101
 
      246     240     245     248     251
        0   40101   10101   30101   20101
 
      247     244     245     248     333
        0   10101   40101   20101   30101
 
      248     246     247     251     334
        0   40101   10101   20101   30101
 
      249     155     238     240     250     251
        0   40101   10102   10202   20101   30101
 
      250     156     249     252     253
        0   40101   10101   30101   20101
 
      251     246     248     249     252     345
        0   10102   10202   40101   20101   30101
 
      252     250     251     253     346
        0   40101   10101   20101   30101
 
      253     157     250     252     254     349
        0   40101   10102   10202   20101   30101
 
      254     158     253     255     350
        0   40101   10101   20101   30101
 
      255     159     254     256     351
        0   40101   10101   20101   30101
 
      256     160     255     257     352
        0   40101   10101   20101   30101
 
      257     161     256     258     353
        0   40101   10101   20101   30101
 
      258     162     257     259     354
        0   40101   10101   20101   30101
 
      259     163     258     260     355
        0   40101   10101   20101   30101
 
      260     164     259     261     356
        0   40101   10101   20101   30101
 
      261     165     260     262     357
        0   40101   10101   20101   30101
 
      262     166     261     263     358
        0   40101   10101   20101   30101
 
      263     167     262     264     359
        0   40101   10101   20101   30101
 
      264     168     263     265     360
        0   40101   10101   20101   30101
 
      265     169     264     266     361
        0   40101   10101   20101   30101
 
      266     170     265     267     362
        0   40101   10101   20101   30101
 
      267     171     266     268     363
        0   40101   10101   20101   30101
 
      268     172     267     269     364
        0   40101   10101   20101   30101
 
      269     173     268     270     365
        0   40101   10101   20101   30101
 
      270     174     269     271     366
        0   40101   10101   20101   30101
 
      271     175     270     272     367
        0   40101   10101   20101   30101
 
      272     176     271     273     368
        0   40101   10101   20101   30101
 
      273     177     272     274     369
        0   40101   10101   20101   30101
 
      274     178     273     275     370
        0   40101   10101   20101   30101
 
      275     179     274     276     371
        0   40101   10101   20101   30101
 
      276     180     275     277     372
        0   40101   10101   20101   30101
 
      277     181     276     278     373
        0   40101   10101   20101   30101
 
      278     182     277     279     374
        0   40101   10101   20101   30101
 
      279     183     278     280     375
        0   40101   10101   20101   30101
 
      280     184     279     281     376
        0   40101   10101   20101   30101
 
      281     185     280     282     377
        0   40101   10101   20101   30101
 
      282     186     281     283     378
        0   40101   10101   20101   30101
 
      283     187     282     284     379
        0   40101   10101   20101   30101
 
      284     188     283     285     380
        0   40101   10101   20101   30101
 
      285     189     284     286     381
        0   40101   10101   20101   30101
 
      286     190     285     287     382
        0   40101   10101   20101   30101
 
      287     191     286     288     383
        0   40101   10101   20101   30101
 
      288     192     287     384
        0   40101   10101   30101
 
      289     193     290     385
        0   40101   20101   30101
 
      290     194     289     291     386
        0   40101   10101   20101   30101
 
      291     195     290     292     387
        0   40101   10101   20101   30101
 
      292     196     291     293     388
        0   40101   10101   20101   30101
 
      293     197     292     294     389
        0   40101   10101   20101   30101
 
      294     198     293     295     390
        0   40101   10101   20101   30101
 
      295     199     294     296     391
        0   40101   10101   20101   30101
 
      296     200     295     297     392
        0   40101   10101   20101   30101
 
      297     201     296     298     393
        0   40101   10101   20101   30101
 
      298     202     297     299     394
        0   40101   10101   20101   30101
 
      299     203     298     300     395
        0   40101   10101   20101   30101
 
      300     204     299     301     396
        0   40101   10101   20101   30101
 
      301     205     300     302     397
        0   40101   10101   20101   30101
 
      302     206     301     303     398
        0   40101   10101   20101   30101
 
      303     207     302     304     399
        0   40101   10101   20101   30101
 
      304     208     303     305     400
        0   40101   10101   20101   30101
 
      305     209     304     306     401
        0   40101   10101   20101   30101
 
      306     210     305     307     402
        0   40101   10101   20101   30101
 
      307     211     306     308     403
        0   40101   10101   20101   30101
 
      308     212     307     309     404
        0   40101   10101   20101   30101
 
      309     213     308     310     405
        0   40101   10101   20101   30101
 
      310     214     309     311     406
        0   40101   10101   20101   30101
 
      311     215     310     312     407
        0   40101   10101   20101   30101
 
      312     216     311     313     408
        0   40101   10101   20101   30101
 
      313     217     312     314     409
        0   40101   10101   20101   30101
 
      314     218     313     315     410
        0   40101   10101   20101   30101
 
      315     219     314     316     411
        0   40101   10101   20101   30101
 
      316     220     315     317     412
        0   40101   10101   20101   30101
 
      317     221     316     318     413
        0   40101   10101   20101   30101
 
      318     222     317     319     414
        0   40101   10101   20101   30101
 
      319     223     318     320     415
        0   40101   10101   20101   30101
 
      320     224     319     321     416
        0   40101   10101   20101   30101
 
      321     225     320     322     417
        0   40101   10101   20101   30101
 
      322     226     321     323     418
        0   40101   10101   20101   30101
 
      323     227     322     324     419
        0   40101   10101   20101   30101
 
      324     228     323     325     327     420
        0   40101   10101   20102   20202   30101
 
      325     231     324     326     327
        0   40101   10101   20101   30101
 
      326     232     325     328     329     331
        0   40101   10101   30101   20102   20202
 
      327     324     325     328     421
        0   10101   40101   20101   30101
 
      328     326     327     337     339     422
        0   40101   10101   20102   20202   30101
 
      329     243     326     330     331
        0   40101   10101   20101   30101
 
      330     244     329     332     333
        0   40101   10101   30101   20101
 
      331     326     329     332     337
        0   10101   40101   20101   30101
 
      332     330     331     335     338
        0   40101   10101   20101   30101
 
      333     247     330     334     335
        0   40101   10101   20101   30101
 
      334     248     333     336     345
        0   40101   10101   30101   20101
 
      335     332     333     336     341
        0   10101   40101   20101   30101
 
      336     334     335     342     345
        0   40101   10101   30101   20101
 
      337     328     331     338     339
        0   10101   40101   20101   30101
 
      338     332     337     340     341
        0   40101   10101   30101   20101
 
      339     328     337     340     425
        0   10101   40101   20101   30101
 
      340     338     339     343     426
        0   40101   10101   20101   30101
 
      341     335     338     342     343
        0   40101   10101   20101   30101
 
      342     336     341     344     347
        0   40101   10101   30101   20101
 
      343     340     341     344     429
        0   10101   40101   20101   30101
 
      344     342     343     347     430
        0   40101   10101   20101   30101
 
      345     251     334     336     346     347
        0   40101   10102   10202   20101   30101
 
      346     252     345     348     349
        0   40101   10101   30101   20101
 
      347     342     344     345     348     441
        0   10102   10202   40101   20101   30101
 
      348     346     347     349     442
        0   40101   10101   20101   30101
 
      349     253     346     348     350     445
        0   40101   10102   10202   20101   30101
 
      350     254     349     351     446
        0   40101   10101   20101   30101
 
      351     255     350     352     447
        0   40101   10101   20101   30101
 
      352     256     351     353     448
        0   40101   10101   20101   30101
 
      353     257     352     354     449
        0   40101   10101   20101   30101
 
      354     258     353     355     450
        0   40101   10101   20101   30101
 
      355     259     354     356     451
        0   40101   10101   20101   30101
 
      356     260     355     357     452
        0   40101   10101   20101   30101
 
      357     261     356     358     453
        0   40101   10101   20101   30101
 
      358     262     357     359     454
        0   40101   10101   20101   30101
 
      359     263     358     360     455
        0   40101   10101   20101   30101
 
      360     264     359     361     456
        0   40101   10101   20101   30101
 
      361     265     360     362     457
        0   40101   10101   20101   30101
 
      362     266     361     363     458
        0   40101   10101   20101   30101
 
      363     267     362     364     459
        0   40101   10101   20101   30101
 
      364     268     363     365     460
        0   40101   10101   20101   30101
 
      365     269     364     366     461
        0   40101   10101   20101   30101
 
      366     270     365     367     462
        0   40101   10101   20101   30101
 
      367     271     366     368     463
        0   40101   10101   20101   30101
 
      368     272     367     369     464
        0   40101   10101   20101   30101
 
      369     273     368     370     465
        0   40101   10101   20101   30101
 
      370     274     369     371     466
        0   40101   10101   20101   30101
 
      371     275     370     372     467
        0   40101   10101   20101   30101
 
      372     276     371     373     468
        0   40101   10101   20101   30101
 
      373     277     372     374     469
        0   40101   10101   20101   30101
 
      374     278     373     375     470
        0   40101   10101   20101   30101
 
      375     279     374     376     471
        0   40101   10101   20101   30101
 
      376     280     375     377     472
        0   40101   10101   20101   30101
 
      377     281     376     378     473
        0   40101   10101   20101   30101
 
      378     282     377     379     474
        0   40101   10101   20101   30101
 
      379     283     378     380     475
        0   40101   10101   20101   30101
 
      380     284     379     381     476
        0   40101   10101   20101   30101
 
      381     285     380     382     477
        0   40101   10101   20101   30101
 
      382     286     381     383     478
        0   40101   10101   20101   30101
 
      383     287     382     384     479
        0   40101   10101   20101   30101
 
      384     288     383     480
        0   40101   10101   30101
 
      385     289     386     481
        0   40101   20101   30101
 
      386     290     385     387     482
        0   40101   10101   20101   30101
 
      387     291     386     388     483
        0   40101   10101   20101   30101
 
      388     292     387     389     484
        0   40101   10101   20101   30101
 
      389     293     388     390     485
        0   40101   10101   20101   30101
 
      390     294     389     391     486
        0   40101   10101   20101   30101
 
      391     295     390     392     487
        0   40101   10101   20101   30101
 
      392     296     391     393     488
        0   40101   10101   20101   30101
 
      393     297     392     394     489
        0   40101   10101   20101   30101
 
      394     298     393     395     490
        0   40101   10101   20101   30101
 
      395     299     394     396     491
        0   40101   10101   20101   30101
 
      396     300     395     397     492
        0   40101   10101   20101   30101
 
      397     301     396     398     493
        0   40101   10101   20101   30101
 
      398     302     397     399     494
        0   40101   10101   20101   30101
 
      399     303     398     400     495
        0   40101   10101   20101   30101
 
      400     304     399     401     496
        0   40101   10101   20101   30101
 
      401     305     400     402     497
        0   40101   10101   20101   30101
 
      402     306     401     403     498
        0   40101   10101   20101   30101
 
      403     307     402     404     499
        0   40101   10101   20101   30101
 
      404     308     403     405     500
        0   40101   10101   20101   30101
 
      405     309     404     406     501
        0   40101   10101   20101   30101
 
      406     310     405     407     502
        0   40101   10101   20101   30101
 
      407     311     406     408     503
        0   40101   10101   20101   30101
 
      408     312     407     409     504
        0   40101   10101   20101   30101
 
      409     313     408     410     505
        0   40101   10101   20101   30101
 
      410     314     409     411     506
        0   40101   10101   20101   30101
 
      411     315     410     412     507
        0   40101   10101   20101   30101
 
      412     316     411     413     508
        0   40101   10101   20101   30101
 
      413     317     412     414     509
        0   40101   10101   20101   30101
 
      414     318     413     415     510
        0   40101   10101   20101   30101
 
      415     319     414     416     511
        0   40101   10101   20101   30101
 
      416     320     415     417     512
        0   40101   10101   20101   30101
 
      417     321     416     418     513
        0   40101   10101   20101   30101
 
      418     322     417     419     514
        0   40101   10101   20101   30101
 
      419     323     418     420     515
        0   40101   10101   20101   30101
 
      420     324     419     421     423     516
        0   40101   10101   20102   20202   30101
 
      421     327     420     422     423
        0   40101   10101   20101   30101
 
      422     328     421     424     425     427
        0   40101   10101   30101   20102   20202
 
      423     420     421     424     517
        0   10101   40101   20101   30101
 
      424     422     423     433     435     518
        0   40101   10101   20102   20202   30101
 
      425     339     422     426     427
        0   40101   10101   20101   30101
 
      426     340     425     428     429
        0   40101   10101   30101   20101
 
      427     422     425     428     433
        0   10101   40101   20101   30101
 
      428     426     427     431     434
        0   40101   10101   20101   30101
 
      429     343     426     430     431
        0   40101   10101   20101   30101
 
      430     344     429     432     441
        0   40101   10101   30101   20101
 
      431     428     429     432     437
        0   10101   40101   20101   30101
 
      432     430     431     438     441
        0   40101   10101   30101   20101
 
      433     424     427     434     435
        0   10101   40101   20101   30101
 
      434     428     433     436     437
        0   40101   10101   30101   20101
 
      435     424     433     436     521
        0   10101   40101   20101   30101
 
      436     434     435     439     522
        0   40101   10101   20101   30101
 
      437     431     434     438     439
        0   40101   10101   20101   30101
 
      438     432     437     440     443
        0   40101   10101   30101   20101
 
      439     436     437     440     525
        0   10101   40101   20101   30101
 
      440     438     439     443     526
        0   40101   10101   20101   30101
 
      441     347     430     432     442     443
        0   40101   10102   10202   20101   30101
 
      442     348     441     444     445
        0   40101   10101   30101   20101
 
      443     438     440     441     444     537
        0   10102   10202   40101   20101   30101
 
      444     442     443     445     538
        0   40101   10101   20101   30101
 
      445     349     442     444     446     541
        0   40101   10102   10202   20101   30101
 
      446     350     445     447     542
        0   40101   10101   20101   30101
 
      447     351     446     448     543
        0   40101   10101   20101   30101
 
      448     352     447     449     544
        0   40101   10101   20101   30101
 
      449     353     448     450     545
        0   40101   10101   20101   30101
 
      450     354     449     451     546
        0   40101   10101   20101   30101
 
      451     355     450     452     547
        0   40101   10101   20101   30101
 
      452     356     451     453     548
        0   40101   10101   20101   30101
 
      453     357     452     454     549
        0   40101   10101   20101   30101
 
      454     358     453     455     550
        0   40101   10101   20101   30101
 
      455     359     454     456     551
        0   40101   10101   20101   30101
 
      456     360     455     457     552
        0   40101   10101   20101   30101
 
      457     361     456     458     553
        0   40101   10101   20101   30101
 
      458     362     457     459     554
        0   40101   10101   20101   30101
 
      459     363     458     460     555
        0   40101   10101   20101   30101
 
      460     364     459     461     556
        0   40101   10101   20101   30101
 
      461     365     460     462     557
        0   40101   10101   20101   30101
 
      462     366     461     463     558
        0   40101   10101   20101   30101
 
      463     367     462     464     559
        0   40101   10101   20101   30101
 
      464     368     463     465     560
        0   40101   10101   20101   30101
 
      465     369     464     466     561
        0   40101   10101   20101   30101
 
      466     370     465     467     562
        0   40101   10101   20101   30101
 
      467     371     466     468     563
        0   40101   10101   20101   30101
 
      468     372     467     469     564
        0   40101   10101   20101   30101
 
      469     373     468     470     565
        0   40101   10101   20101   30101
 
      470     374     469     471     566
        0   40101   10101   20101   30101
 
      471     375     470     472     567
        0   40101   10101   20101   30101
 
      472     376     471     473     568
        0   40101   10101   20101   30101
 
      473     377     472     474     569
        0   40101   10101   20101   30101
 
      474     378     473     475     570
        0   40101   10101   20101   30101
 
      475     379     474     476     571
        0   40101   10101   20101   30101
 
      476     380     475     477     572
        0   40101   10101   20101   30101
 
      477     381     476     478     573
        0   40101   10101   20101   30101
 
      478     382     477     479     574
        0   40101   10101   20101   30101
 
      479     383     478     480     575
        0   40101   10101   20101   30101
 
      480     384     479     576
        0   40101   10101   30101
 
      481     385     482     577
        0   40101   20101   30101
 
      482     386     481     483     578
        0   40101   10101   20101   30101
 
      483     387     482     484     579
        0   40101   10101   20101   30101
 
      484     388     483     485     580
        0   40101   10101   20101   30101
 
      485     389     484     486     581
        0   40101   10101   20101   30101
 
      486     390     485     487     582
        0   40101   10101   20101   30101
 
      487     391     486     488     583
        0   40101   10101   20101   30101
 
      488     392     487     489     584
        0   40101   10101   20101   30101
 
      489     393     488     490     585
        0   40101   10101   20101   30101
 
      490     394     489     491     586
        0   40101   10101   20101   30101
 
      491     395     490     492     587
        0   40101   10101   20101   30101
 
      492     396     491     493     588
        0   40101   10101   20101   30101
 
      493     397     492     494     589
        0   40101   10101   20101   30101
 
      494     398     493     495     590
        0   40101   10101   20101   30101
 
      495     399     494     496     591
        0   40101   10101   20101   30101
 
      496     400     495     497     592
        0   40101   10101   20101   30101
 
      497     401     496     498     593
        0   40101   10101   20101   30101
 
      498     402     497     499     594
        0   40101   10101   20101   30101
 
      499     403     498     500     595
        0   40101   10101   20101   30101
 
      500     404     499     501     596
        0   40101   10101   20101   30101
 
      501     405     500     502     597
        0   40101   10101   20101   30101
 
      502     406     501     503     598
        0   40101   10101   20101   30101
 
      503     407     502     504     599
        0   40101   10101   20101   30101
 
      504     408     503     505     600
        0   40101   10101   20101   30101
 
      505     409     504     506     601
        0   40101   10101   20101   30101
 
      506     410     505     507     602
        0   40101   10101   20101   30101
 
      507     411     506     508     603
        0   40101   10101   20101   30101
 
      508     412     507     509     604
        0   40101   10101   20101   30101
 
      509     413     508     510     605
        0   40101   10101   20101   30101
 
      510     414     509     511     606
        0   40101   10101   20101   30101
 
      511     415     510     512     607
        0   40101   10101   20101   30101
 
      512     416     511     513     608
        0   40101   10101   20101   30101
 
      513     417     512     514     609
        0   40101   10101   20101   30101
 
      514     418     513     515     610
        0   40101   10101   20101   30101
 
      515     419     514     516     611
        0   40101   10101   20101   30101
 
      516     420     515     517     519     612
        0   40101   10101   20102   20202   30101
 
      517     423     516     518     519
        0   40101   10101   20101   30101
 
      518     424     517     520     521     523
        0   40101   10101   30101   20102   20202
 
      519     516     517     520     613
        0   10101   40101   20101   30101
 
      520     518     519     529     531     614
        0   40101   10101   20102   20202   30101
 
      521     435     518     522     523
        0   40101   10101   20101   30101
 
      522     436     521     524     525
        0   40101   10101   30101   20101
 
      523     518     521     524     529
        0   10101   40101   20101   30101
 
      524     522     523     527     530
        0   40101   10101   20101   30101
 
      525     439     522     526     527
        0   40101   10101   20101   30101
 
      526     440     525     528     537
        0   40101   10101   30101   20101
 
      527     524     525     528     533
        0   10101   40101   20101   30101
 
      528     526     527     534     537
        0   40101   10101   30101   20101
 
      529     520     523     530     531
        0   10101   40101   20101   30101
 
      530     524     529     532     533
        0   40101   10101   30101   20101
 
      531     520     529     532     617
        0   10101   40101   20101   30101
 
      532     530     531     535     618
        0   40101   10101   20101   30101
 
      533     527     530     534     535
        0   40101   10101   20101   30101
 
      534     528     533     536     539
        0   40101   10101   30101   20101
 
      535     532     533     536     621
        0   10101   40101   20101   30101
 
      536     534     535     539     622
        0   40101   10101   20101   30101
 
      537     443     526     528     538     539
        0   40101   10102   10202   20101   30101
 
      538     444     537     540     541
        0   40101   10101   30101   20101
 
      539     534     536     537     540     633
        0   10102   10202   40101   20101   30101
 
      540     538     539     541     634
        0   40101   10101   20101   30101
 
      541     445     538     540     542     637
        0   40101   10102   10202   20101   30101
 
      542     446     541     543     638
        0   40101   10101   20101   30101
 
      543     447     542     544     639
        0   40101   10101   20101   30101
 
      544     448     543     545     640
        0   40101   10101   20101   30101
 
      545     449     544     546     641
        0   40101   10101   20101   30101
 
      546     450     545     547     642
        0   40101   10101   20101   30101
 
      547     451     546     548     643
        0   40101   10101   20101   30101
 
      548     452     547     549     644
        0   40101   10101   20101   30101
 
      549     453     548     550     645
        0   40101   10101   20101   30101
 
      550     454     549     551     646
        0   40101   10101   20101   30101
 
      551     455     550     552     647
        0   40101   10101   20101   30101
 
      552     456     551     553     648
        0   40101   10101   20101   30101
 
      553     457     552     554     649
        0   40101   10101   20101   30101
 
      554     458     553     555     650
        0   40101   10101   20101   30101
 
      555     459     554     556     651
        0   40101   10101   20101   30101
 
      556     460     555     557     652
        0   40101   10101   20101   30101
 
      557     461     556     558     653
        0   40101   10101   20101   30101
 
      558     462     557     559     654
        0   40101   10101   20101   30101
 
      559     463     558     560     655
        0   40101   10101   20101   30101
 
      560     464     559     561     656
        0   40101   10101   20101   30101
 
      561     465     560     562     657
        0   40101   10101   20101   30101
 
      562     466     561     563     658
        0   40101   10101   20101   30101
 
      563     467     562     564     659
        0   40101   10101   20101   30101
 
      564     468     563     565     660
        0   40101   10101   20101   30101
 
      565     469     564     566     661
        0   40101   10101   20101   30101
 
      566     470     565     567     662
        0   40101   10101   20101   30101
 
      567     471     566     568     663
        0   40101   10101   20101   30101
 
      568     472     567     569     664
        0   40101   10101   20101   30101
 
      569     473     568     570     665
        0   40101   10101   20101   30101
 
      570     474     569     571     666
        0   40101   10101   20101   30101
 
      571     475     570     572     667
        0   40101   10101   20101   30101
 
      572     476     571     573     668
        0   40101   10101   20101   30101
 
      573     477     572     574     669
        0   40101   10101   20101   30101
 
      574     478     573     575     670
        0   40101   10101   20101   30101
 
      575     479     574     576     671
        0   40101   10101   20101   30101
 
      576     480     575     672
        0   40101   10101   30101
 
      577     481     578     673
        0   40101   20101   30101
 
      578     482     577     579     674
        0   40101   10101   20101   30101
 
      579     483     578     580     675
        0   40101   10101   20101   30101
 
      580     484     579     581     676
        0   40101   10101   20101   30101
 
      581     485     580     582     677
        0   40101   10101   20101   30101
 
      582     486     581     583     678
        0   40101   10101   20101   30101
 
      583     487     582     584     679
        0   40101   10101   20101   30101
 
      584     488     583     585     680
        0   40101   10101   20101   30101
 
      585     489     584     586     681
        0   40101   10101   20101   30101
 
      586     490     585     587     682
        0   40101   10101   20101   30101
 
      587     491     586     588     683
        0   40101   10101   20101   30101
 
      588     492     587     589     684
        0   40101   10101   20101   30101
 
      589     493     588     590     685
        0   40101   10101   20101   30101
 
      590     494     589     591     686
        0   40101   10101   20101   30101
 
      591     495     590     592     687
        0   40101   10101   20101   30101
 
      592     496     591     593     688
        0   40101   10101   20101   30101
 
      593     497     592     594     689
        0   40101   10101   20101   30101
 
      594     498     593     595     690
        0   40101   10101   20101   30101
 
      595     499     594     596     691
        0   40101   10101   20101   30101
 
      596     500     595     597     692
        0   40101   10101   20101   30101
 
      597     501     596     598     693
        0   40101   10101   20101   30101
 
      598     502     597     599     694
        0   40101   10101   20101   30101
 
      599     503     598     600     695
        0   40101   10101   20101   30101
 
      600     504     599     601     696
        0   40101   10101   20101   30101
 
      601     505     600     602     697
        0   40101   10101   20101   30101
 
      602     506     601     603     698
        0   40101   10101   20101   30101
 
      603     507     602     604     699
        0   40101   10101   20101   30101
 
      604     508     603     605     700
        0   40101   10101   20101   30101
 
      605     509     604     606     701
        0   40101   10101   20101   30101
 
      606     510     605     607     702
        0   40101   10101   20101   30101
 
      607     511     606     608     703
        0   40101   10101   20101   30101
 
      608     512     607     609     704
        0   40101   10101   20101   30101
 
      609     513     608     610     705
        0   40101   10101   20101   30101
 
      610     514     609     611     706
        0   40101   10101   20101   30101
 
      611     515     610     612     707
        0   40101   10101   20101   30101
 
      612     516     611     613     615     708
        0   40101   10101   20102   20202   30101
 
      613     519     612     614     615
        0   40101   10101   20101   30101
 
      614     520     613     616     617     619
        0   40101   10101   30101   20102   20202
 
      615     612     613     616     709
        0   10101   40101   20101   30101
 
      616     614     615     625     627     710
        0   40101   10101   20102   20202   30101
 
      617     531     614     618     619
        0   40101   10101   20101   30101
 
      618     532     617     620     621
        0   40101   10101   30101   20101
 
      619     614     617     620     625
        0   10101   40101   20101   30101
 
      620     618     619     623     626
        0   40101   10101   20101   30101
 
      621     535     618     622     623
        0   40101   10101   20101   30101
 
      622     536     621     624     633
        0   40101   10101   30101   20101
 
      623     620     621     624     629
        0   10101   40101   20101   30101
 
      624     622     623     630     633
        0   40101   10101   30101   20101
 
      625     616     619     626     627
        0   10101   40101   20101   30101
 
      626     620     625     628     629
        0   40101   10101   30101   20101
 
      627     616     625     628     713
        0   10101   40101   20101   30101
 
      628     626     627     631     714
        0   40101   10101   20101   30101
 
      629     623     626     630     631
        0   40101   10101   20101   30101
 
      630     624     629     632     635
        0   40101   10101   30101   20101
 
      631     628     629     632     717
        0   10101   40101   20101   30101
 
      632     630     631     635     718
        0   40101   10101   20101   30101
 
      633     539     622     624     634     635
        0   40101   10102   10202   20101   30101
 
      634     540     633     636     637
        0   40101   10101   30101   20101
 
      635     630     632     633     636     729
        0   10102   10202   40101   20101   30101
 
      636     634     635     637     730
        0   40101   10101   20101   30101
 
      637     541     634     636     638     733
        0   40101   10102   10202   20101   30101
 
      638     542     637     639     734
        0   40101   10101   20101   30101
 
      639     543     638     640     735
        0   40101   10101   20101   30101
 
      640     544     639     641     736
        0   40101   10101   20101   30101
 
      641     545     640     642     737
        0   40101   10101   20101   30101
 
      642     546     641     643     738
        0   40101   10101   20101   30101
 
      643     547     642     644     739
        0   40101   10101   20101   30101
 
      644     548     643     645     740
        0   40101   10101   20101   30101
 
      645     549     644     646     741
        0   40101   10101   20101   30101
 
      646     550     645     647     742
        0   40101   10101   20101   30101
 
      647     551     646     648     743
        0   40101   10101   20101   30101
 
      648     552     647     649     744
        0   40101   10101   20101   30101
 
      649     553     648     650     745
        0   40101   10101   20101   30101
 
      650     554     649     651     746
        0   40101   10101   20101   30101
 
      651     555     650     652     747
        0   40101   10101   20101   30101
 
      652     556     651     653     748
        0   40101   10101   20101   30101
 
      653     557     652     654     749
        0   40101   10101   20101   30101
 
      654     558     653     655     750
        0   40101   10101   20101   30101
 
      655     559     654     656     751
        0   40101   10101   20101   30101
 
      656     560     655     657     752
        0   40101   10101   20101   30101
 
      657     561     656     658     753
        0   40101   10101   20101   30101
 
      658     562     657     659     754
        0   40101   10101   20101   30101
 
      659     563     658     660     755
        0   40101   10101   20101   30101
 
      660     564     659     661     756
        0   40101   10101   20101   30101
 
      661     565     660     662     757
        0   40101   10101   20101   30101
 
      662     566     661     663     758
        0   40101   10101   20101   30101
 
      663     567     662     664     759
        0   40101   10101   20101   30101
 
      664     568     663     665     760
        0   40101   10101   20101   30101
 
      665     569     664     666     761
        0   40101   10101   20101   30101
 
      666     570     665     667     762
        0   40101   10101   20101   30101
 
      667     571     666     668     763
        0   40101   10101   20101   30101
 
      668     572     667     669     764
        0   40101   10101   20101   30101
 
      669     573     668     670     765
        0   40101   10101   20101   30101
 
      670     574     669     671     766
        0   40101   10101   20101   30101
 
      671     575     670     672     767
        0   40101   10101   20101   30101
 
      672     576     671     768
        0   40101   10101   30101
 
      673     577     674     769
        0   40101   20101   30101
 
      674     578     673     675     770
        0   40101   10101   20101   30101
 
      675     579     674     676     771
        0   40101   10101   20101   30101
 
      676     580     675     677     772
        0   40101   10101   20101   30101
 
      677     581     676     678     773
        0   40101   10101   20101   30101
 
      678     582     677     679     774
        0   40101   10101   20101   30101
 
      679     583     678     680     775
        0   40101   10101   20101   30101
 
      680     584     679     681     776
        0   40101   10101   20101   30101
 
      681     585     680     682     777
        0   40101   10101   20101   30101
 
      682     586     681     683     778
        0   40101   10101   20101   30101
 
      683     587     682     684     779
        0   40101   10101   20101   30101
 
      684     588     683     685     780
        0   40101   10101   20101   30101
 
      685     589     684     686     781
        0   40101   10101   20101   30101
 
      686     590     685     687     782
        0   40101   10101   20101   30101
 
      687     591     686     688     783
        0   40101   10101   20101   30101
 
      688     592     687     689     784
        0   40101   10101   20101   30101
 
      689     593     688     690     785
        0   40101   10101   20101   30101
 
      690     594     689     691     786
        0   40101   10101   20101   30101
 
      691     595     690     692     787
        0   40101   10101   20101   30101
 
      692     596     691     693     788
        0   40101   10101   20101   30101
 
      693     597     692     694     789
        0   40101   10101   20101   30101
 
      694     598     693     695     790
        0   40101   10101   20101   30101
 
      695     599     694     696     791
        0   40101   10101   20101   30101
 
      696     600     695     697     792
        0   40101   10101   20101   30101
 
      697     601     696     698     793
        0   40101   10101   20101   30101
 
      698     602     697     699     794
        0   40101   10101   20101   30101
 
      699     603     698     700     795
        0   40101   10101   20101   30101
 
      700     604     699     701     796
        0   40101   10101   20101   30101
 
      701     605     700     702     797
        0   40101   10101   20101   30101
 
      702     606     701     703     798
        0   40101   10101   20101   30101
 
      703     607     702     704     799
        0   40101   10101   20101   30101
 
      704     608     703     705     800
        0   40101   10101   20101   30101
 
      705     609     704     706     801
        0   40101   10101   20101   30101
 
      706     610     705     707     802
        0   40101   10101   20101   30101
 
      707     611     706     708     803
        0   40101   10101   20101   30101
 
      708     612     707     709     711     804
        0   40101   10101   20102   20202   30101
 
      709     615     708     710     711
        0   40101   10101   20101   30101
 
      710     616     709     712     713     715
        0   40101   10101   30101   20102   20202
 
      711     708     709     712     805
        0   10101   40101   20101   30101
 
      712     710     711     721     723     806
        0   40101   10101   20102   20202   30101
 
      713     627     710     714     715
        0   40101   10101   20101   30101
 
      714     628     713     716     717
        0   40101   10101   30101   20101
 
      715     710     713     716     721
        0   10101   40101   20101   30101
 
      716     714     715     719     722
        0   40101   10101   20101   30101
 
      717     631     714     718     719
        0   40101   10101   20101   30101
 
      718     632     717     720     729
        0   40101   10101   30101   20101
 
      719     716     717     720     725
        0   10101   40101   20101   30101
 
      720     718     719     726     729
        0   40101   10101   30101   20101
 
      721     712     715     722     723
        0   10101   40101   20101   30101
 
      722     716     721     724     725
        0   40101   10101   30101   20101
 
      723     712     721     724     809
        0   10101   40101   20101   30101
 
      724     722     723     727     810
        0   40101   10101   20101   30101
 
      725     719     722     726     727
        0   40101   10101   20101   30101
 
      726     720     725     728     731
        0   40101   10101   30101   20101
 
      727     724     725     728     813
        0   10101   40101   20101   30101
 
      728     726     727     731     814
        0   40101   10101   20101   30101
 
      729     635     718     720     730     731
        0   40101   10102   10202   20101   30101
 
      730     636     729     732     733
        0   40101   10101   30101   20101
 
      731     726     728     729     732     825
        0   10102   10202   40101   20101   30101
 
      732     730     731     733     826
        0   40101   10101   20101   30101
 
      733     637     730     732     734     829
        0   40101   10102   10202   20101   30101
 
      734     638     733     735     830
        0   40101   10101   20101   30101
 
      735     639     734     736     831
        0   40101   10101   20101   30101
 
      736     640     735     737     832
        0   40101   10101   20101   30101
 
      737     641     736     738     833
        0   40101   10101   20101   30101
 
      738     642     737     739     834
        0   40101   10101   20101   30101
 
      739     643     738     740     835
        0   40101   10101   20101   30101
 
      740     644     739     741     836
        0   40101   10101   20101   30101
 
      741     645     740     742     837
        0   40101   10101   20101   30101
 
      742     646     741     743     838
        0   40101   10101   20101   30101
 
      743     647     742     744     839
        0   40101   10101   20101   30101
 
      744     648     743     745     840
        0   40101   10101   20101   30101
 
      745     649     744     746     841
        0   40101   10101   20101   30101
 
      746     650     745     747     842
        0   40101   10101   20101   30101
 
      747     651     746     748     843
        0   40101   10101   20101   30101
 
      748     652     747     749     844
        0   40101   10101   20101   30101
 
      749     653     748     750     845
        0   40101   10101   20101   30101
 
      750     654     749     751     846
        0   40101   10101   20101   30101
 
      751     655     750     752     847
        0   40101   10101   20101   30101
 
      752     656     751     753     848
        0   40101   10101   20101   30101
 
      753     657     752     754     849
        0   40101   10101   20101   30101
 
      754     658     753     755     850
        0   40101   10101   20101   30101
 
      755     659     754     756     851
        0   40101   10101   20101   30101
 
      756     660     755     757     852
        0   40101   10101   20101   30101
 
      757     661     756     758     853
        0   40101   10101   20101   30101
 
      758     662     757     759     854
        0   40101   10101   20101   30101
 
      759     663     758     760     855
        0   40101   10101   20101   30101
 
      760     664     759     761     856
        0   40101   10101   20101   30101
 
      761     665     760     762     857
        0   40101   10101   20101   30101
 
      762     666     761     763     858
        0   40101   10101   20101   30101
 
      763     667     762     764     859
        0   40101   10101   20101   30101
 
      764     668     763     765     860
        0   40101   10101   20101   30101
 
      765     669     764     766     861
        0   40101   10101   20101   30101
 
      766     670     765     767     862
        0   40101   10101   20101   30101
 
      767     671     766     768     863
        0   40101   10101   20101   30101
 
      768     672     767     864
        0   40101   10101   30101
 
      769     673     770     865
        0   40101   20101   30101
 
      770     674     769     771     866
        0   40101   10101   20101   30101
 
      771     675     770     772     867
        0   40101   10101   20101   30101
 
      772     676     771     773     868
        0   40101   10101   20101   30101
 
      773     677     772     774     869
        0   40101   10101   20101   30101
 
      774     678     773     775     870
        0   40101   10101   20101   30101
 
      775     679     774     776     871
        0   40101   10101   20101   30101
 
      776     680     775     777     872
        0   40101   10101   20101   30101
 
      777     681     776     778     873
        0   40101   10101   20101   30101
 
      778     682     777     779     874
        0   40101   10101   20101   30101
 
      779     683     778     780     875
        0   40101   10101   20101   30101
 
      780     684     779     781     876
        0   40101   10101   20101   30101
 
      781     685     780     782     877
        0   40101   10101   20101   30101
 
      782     686     781     783     878
        0   40101   10101   20101   30101
 
      783     687     782     784     879
        0   40101   10101   20101   30101
 
      784     688     783     785     880
        0   40101   10101   20101   30101
 
      785     689     784     786     881
        0   40101   10101   20101   30101
 
      786     690     785     787     882
        0   40101   10101   20101   30101
 
      787     691     786     788     883
        0   40101   10101   20101   30101
 
      788     692     787     789     884
        0   40101   10101   20101   30101
 
      789     693     788     790     885
        0   40101   10101   20101   30101
 
      790     694     789     791     886
        0   40101   10101   20101   30101
 
      791     695     790     792     887
        0   40101   10101   20101   30101
 
      792     696     791     793     888
        0   40101   10101   20101   30101
 
      793     697     792     794     889
        0   40101   10101   20101   30101
 
      794     698     793     795     890
        0   40101   10101   20101   30101
 
      795     699     794     796     891
        0   40101   10101   20101   30101
 
      796     700     795     797     892
        0   40101   10101   20101   30101
 
      797     701     796     798     893
        0   40101   10101   20101   30101
 
      798     702     797     799     894
        0   40101   10101   20101   30101
 
      799     703     798     800     895
        0   40101   10101   20101   30101
 
      800     704     799     801     896
        0   40101   10101   20101   30101
 
      801     705     800     802     897
        0   40101   10101   20101   30101
 
      802     706     801     803     898
        0   40101   10101   20101   30101
 
      803     707     802     804     899
        0   40101   10101   20101   30101
 
      804     708     803     805     807     900
        0   40101   10101   20102   20202   30101
 
      805     711     804     806     807
        0   40101   10101   20101   30101
 
      806     712     805     808     809     811
        0   40101   10101   30101   20102   20202
 
      807     804     805     808     901
        0   10101   40101   20101   30101
 
      808     806     807     817     819     902
        0   40101   10101   20102   20202   30101
 
      809     723     806     810     811
        0   40101   10101   20101   30101
 
      810     724     809     812     813
        0   40101   10101   30101   20101
 
      811     806     809     812     817
        0   10101   40101   20101   30101
 
      812     810     811     815     818
        0   40101   10101   20101   30101
 
      813     727     810     814     815
        0   40101   10101   20101   30101
 
      814     728     813     816     825
        0   40101   10101   30101   20101
 
      815     812     813     816     821
        0   10101   40101   20101   30101
 
      816     814     815     822     825
        0   40101   10101   30101   20101
 
      817     808     811     818     819
        0   10101   40101   20101   30101
 
      818     812     817     820     821
        0   40101   10101   30101   20101
 
      819     808     817     820     905
        0   10101   40101   20101   30101
 
      820     818     819     823     906
        0   40101   10101   20101   30101
 
      821     815     818     822     823
        0   40101   10101   20101   30101
 
      822     816     821     824     827
        0   40101   10101   30101   20101
 
      823     820     821     824     909
        0   10101   40101   20101   30101
 
      824     822     823     827     910
        0   40101   10101   20101   30101
 
      825     731     814     816     826     827
        0   40101   10102   10202   20101   30101
 
      826     732     825     828     829
        0   40101   10101   30101   20101
 
      827     822     824     825     828     921
        0   10102   10202   40101   20101   30101
 
      828     826     827     829     922
        0   40101   10101   20101   30101
 
      829     733     826     828     830     925
        0   40101   10102   10202   20101   30101
 
      830     734     829     831     926
        0   40101   10101   20101   30101
 
      831     735     830     832     927
        0   40101   10101   20101   30101
 
      832     736     831     833     928
        0   40101   10101   20101   30101
 
      833     737     832     834     929
        0   40101   10101   20101   30101
 
      834     738     833     835     930
        0   40101   10101   20101   30101
 
      835     739     834     836     931
        0   40101   10101   20101   30101
 
      836     740     835     837     932
        0   40101   10101   20101   30101
 
      837     741     836     838     933
        0   40101   10101   20101   30101
 
      838     742     837     839     934
        0   40101   10101   20101   30101
 
      839     743     838     840     935
        0   40101   10101   20101   30101
 
      840     744     839     841     936
        0   40101   10101   20101   30101
 
      841     745     840     842     937
        0   40101   10101   20101   30101
 
      842     746     841     843     938
        0   40101   10101   20101   30101
 
      843     747     842     844     939
        0   40101   10101   20101   30101
 
      844     748     843     845     940
        0   40101   10101   20101   30101
 
      845     749     844     846     941
        0   40101   10101   20101   30101
 
      846     750     845     847     942
        0   40101   10101   20101   30101
 
      847     751     846     848     943
        0   40101   10101   20101   30101
 
      848     752     847     849     944
        0   40101   10101   20101   30101
 
      849     753     848     850     945
        0   40101   10101   20101   30101
 
      850     754     849     851     946
        0   40101   10101   20101   30101
 
      851     755     850     852     947
        0   40101   10101   20101   30101
 
      852     756     851     853     948
        0   40101   10101   20101   30101
 
      853     757     852     854     949
        0   40101   10101   20101   30101
 
      854     758     853     855     950
        0   40101   10101   20101   30101
 
      855     759     854     856     951
        0   40101   10101   20101   30101
 
      856     760     855     857     952
        0   40101   10101   20101   30101
 
      857     761     856     858     953
        0   40101   10101   20101   30101
 
      858     762     857     859     954
        0   40101   10101   20101   30101
 
      859     763     858     860     955
        0   40101   10101   20101   30101
 
      860     764     859     861     956
        0   40101   10101   20101   30101
 
      861     765     860     862     957
        0   40101   10101   20101   30101
 
      862     766     861     863     958
        0   40101   10101   20101   30101
 
      863     767     862     864     959
        0   40101   10101   20101   30101
 
      864     768     863     960     961
        0   40101   10101   30102   30202
 
      865     769     866     967
        0   40101   20101   30101
 
      866     770     865     867     968
        0   40101   10101   20101   30101
 
      867     771     866     868     969
        0   40101   10101   20101   30101
 
      868     772     867     869     970
        0   40101   10101   20101   30101
 
      869     773     868     870     971
        0   40101   10101   20101   30101
 
      870     774     869     871     972
        0   40101   10101   20101   30101
 
      871     775     870     872     973
        0   40101   10101   20101   30101
 
      872     776     871     873     974
        0   40101   10101   20101   30101
 
      873     777     872     874     975
        0   40101   10101   20101   30101
 
      874     778     873     875     976
        0   40101   10101   20101   30101
 
      875     779     874     876     977
        0   40101   10101   20101   30101
 
      876     780     875     877     978
        0   40101   10101   20101   30101
 
      877     781     876     878     979
        0   40101   10101   20101   30101
 
      878     782     877     879     980
        0   40101   10101   20101   30101
 
      879     783     878     880     981
        0   40101   10101   20101   30101
 
      880     784     879     881     982
        0   40101   10101   20101   30101
 
      881     785     880     882     983
        0   40101   10101   20101   30101
 
      882     786     881     883     984
        0   40101   10101   20101   30101
 
      883     787     882     884     985
        0   40101   10101   20101   30101
 
      884     788     883     885     986
        0   40101   10101   20101   30101
 
      885     789     884     886     987
        0   40101   10101   20101   30101
 
      886     790     885     887     988
        0   40101   10101   20101   30101
 
      887     791     886     888     989
        0   40101   10101   20101   30101
 
      888     792     887     889     990
        0   40101   10101   20101   30101
 
      889     793     888     890     991
        0   40101   10101   20101   30101
 
      890     794     889     891     992
        0   40101   10101   20101   30101
 
      891     795     890     892     993
        0   40101   10101   20101   30101
 
      892     796     891     893     994
        0   40101   10101   20101   30101
 
      893     797     892     894     995
        0   40101   10101   20101   30101
 
      894     798     893     895     996
        0   40101   10101   20101   30101
 
      895     799     894     896     997
        0   40101   10101   20101   30101
 
      896     800     895     897     998
        0   40101   10101   20101   30101
 
      897     801     896     898     999
        0   40101   10101   20101   30101
 
      898     802     897     899    1000
        0   40101   10101   20101   30101
 
      899     803     898     900    1001
        0   40101   10101   20101   30101
 
      900     804     899     901     903    1002
        0   40101   10101   20102   20202   30101
 
      901     807     900     902     903
        0   40101   10101   20101   30101
 
      902     808     901     904     905     907
        0   40101   10101   30101   20102   20202
 
      903     900     901     904    1003
        0   10101   40101   20101   30101
 
      904     902     903     913     915    1004
        0   40101   10101   20102   20202   30101
 
      905     819     902     906     907
        0   40101   10101   20101   30101
 
      906     820     905     908     909
        0   40101   10101   30101   20101
 
      907     902     905     908     913
        0   10101   40101   20101   30101
 
      908     906     907     911     914
        0   40101   10101   20101   30101
 
      909     823     906     910     911
        0   40101   10101   20101   30101
 
      910     824     909     912     921
        0   40101   10101   30101   20101
 
      911     908     909     912     917
        0   10101   40101   20101   30101
 
      912     910     911     918     921
        0   40101   10101   30101   20101
 
      913     904     907     914     915
        0   10101   40101   20101   30101
 
      914     908     913     916     917
        0   40101   10101   30101   20101
 
      915     904     913     916    1007
        0   10101   40101   20101   30101
 
      916     914     915     919    1008
        0   40101   10101   20101   30101
 
      917     911     914     918     919
        0   40101   10101   20101   30101
 
      918     912     917     920     923
        0   40101   10101   30101   20101
 
      919     916     917     920    1011
        0   10101   40101   20101   30101
 
      920     918     919     923    1012
        0   40101   10101   20101   30101
 
      921     827     910     912     922     923
        0   40101   10102   10202   20101   30101
 
      922     828     921     924     925
        0   40101   10101   30101   20101
 
      923     918     920     921     924    1023
        0   10102   10202   40101   20101   30101
 
      924     922     923     925    1024
        0   40101   10101   20101   30101
 
      925     829     922     924     926    1027
        0   40101   10102   10202   20101   30101
 
      926     830     925     927    1028
        0   40101   10101   20101   30101
 
      927     831     926     928    1029
        0   40101   10101   20101   30101
 
      928     832     927     929    1030
        0   40101   10101   20101   30101
 
      929     833     928     930    1031
        0   40101   10101   20101   30101
 
      930     834     929     931    1032
[...]
 
    12482   12476   12479   12483   12484
        0   40101   10101   20101   30101
 
    12483   12477   12482   12485   12488
        0   40101   10101   30101   20101
 
    12484   12481   12482   12485   12570
        0   10101   40101   20101   30101
 
    12485   12483   12484   12488   12571
        0   40101   10101   20101   30101
 
    12486   12392   12475   12477   12487   12488
        0   40101   10102   10202   20101   30101
 
    12487   12393   12486   12489   12490
        0   40101   10101   30101   20101
 
    12488   12483   12485   12486   12489   12582
        0   10102   10202   40101   20101   30101
 
    12489   12487   12488   12490   12583
        0   40101   10101   20101   30101
 
    12490   12394   12487   12489   12491   12586
        0   40101   10102   10202   20101   30101
 
    12491   12395   12490   12492   12587
        0   40101   10101   20101   30101
 
    12492   12396   12491   12493   12588
        0   40101   10101   20101   30101
 
    12493   12397   12492   12494   12589
        0   40101   10101   20101   30101
 
    12494   12398   12493   12495   12590
        0   40101   10101   20101   30101
 
    12495   12399   12494   12496   12591
        0   40101   10101   20101   30101
 
    12496   12400   12495   12497   12592
        0   40101   10101   20101   30101
 
    12497   12401   12496   12498   12593
        0   40101   10101   20101   30101
 
    12498   12402   12497   12499   12594
        0   40101   10101   20101   30101
 
    12499   12403   12498   12500   12595
        0   40101   10101   20101   30101
 
    12500   12404   12499   12501   12596
        0   40101   10101   20101   30101
 
    12501   12405   12500   12502   12597
        0   40101   10101   20101   30101
 
    12502   12406   12501   12503   12598
        0   40101   10101   20101   30101
 
    12503   12407   12502   12504   12599
        0   40101   10101   20101   30101
 
    12504   12408   12503   12505   12600
        0   40101   10101   20101   30101
 
    12505   12409   12504   12506   12601
        0   40101   10101   20101   30101
 
    12506   12410   12505   12507   12602
        0   40101   10101   20101   30101
 
    12507   12411   12506   12508   12603
        0   40101   10101   20101   30101
 
    12508   12412   12507   12509   12604
        0   40101   10101   20101   30101
 
    12509   12413   12508   12510   12605
        0   40101   10101   20101   30101
 
    12510   12414   12509   12511   12606
        0   40101   10101   20101   30101
 
    12511   12415   12510   12512   12607
        0   40101   10101   20101   30101
 
    12512   12416   12511   12513   12608
        0   40101   10101   20101   30101
 
    12513   12417   12512   12514   12609
        0   40101   10101   20101   30101
 
    12514   12418   12513   12515   12610
        0   40101   10101   20101   30101
 
    12515   12419   12514   12516   12611
        0   40101   10101   20101   30101
 
    12516   12420   12515   12517   12612
        0   40101   10101   20101   30101
 
    12517   12421   12516   12518   12613
        0   40101   10101   20101   30101
 
    12518   12422   12517   12519   12614
        0   40101   10101   20101   30101
 
    12519   12423   12518   12520   12615
        0   40101   10101   20101   30101
 
    12520   12424   12519   12521   12616
        0   40101   10101   20101   30101
 
    12521   12425   12520   12522   12617
        0   40101   10101   20101   30101
 
    12522   12426   12521   12523   12618
        0   40101   10101   20101   30101
 
    12523   12427   12522   12524   12619
        0   40101   10101   20101   30101
 
    12524   12428   12523   12525   12620
        0   40101   10101   20101   30101
 
    12525   12429   12524   12621
        0   40101   10101   30101
 
    12526   12430   12527   12622
        0   40101   20101   30101
 
    12527   12431   12526   12528   12623
        0   40101   10101   20101   30101
 
    12528   12432   12527   12529   12624
        0   40101   10101   20101   30101
 
    12529   12433   12528   12530   12625
        0   40101   10101   20101   30101
 
    12530   12434   12529   12531   12626
        0   40101   10101   20101   30101
 
    12531   12435   12530   12532   12627
        0   40101   10101   20101   30101
 
    12532   12436   12531   12533   12628
        0   40101   10101   20101   30101
 
    12533   12437   12532   12534   12629
        0   40101   10101   20101   30101
 
    12534   12438   12533   12535   12630
        0   40101   10101   20101   30101
 
    12535   12439   12534   12536   12631
        0   40101   10101   20101   30101
 
    12536   12440   12535   12537   12632
        0   40101   10101   20101   30101
 
    12537   12441   12536   12538   12633
        0   40101   10101   20101   30101
 
    12538   12442   12537   12539   12634
        0   40101   10101   20101   30101
 
    12539   12443   12538   12540   12635
        0   40101   10101   20101   30101
 
    12540   12444   12539   12541   12636
        0   40101   10101   20101   30101
 
    12541   12445   12540   12542   12637
        0   40101   10101   20101   30101
 
    12542   12446   12541   12543   12638
        0   40101   10101   20101   30101
 
    12543   12447   12542   12544   12639
        0   40101   10101   20101   30101
 
    12544   12448   12543   12545   12640
        0   40101   10101   20101   30101
 
    12545   12449   12544   12546   12641
        0   40101   10101   20101   30101
 
    12546   12450   12545   12547   12642
        0   40101   10101   20101   30101
 
    12547   12451   12546   12548   12643
        0   40101   10101   20101   30101
 
    12548   12452   12547   12549   12644
        0   40101   10101   20101   30101
 
    12549   12453   12548   12550   12645
        0   40101   10101   20101   30101
 
    12550   12454   12549   12551   12646
        0   40101   10101   20101   30101
 
    12551   12455   12550   12552   12647
        0   40101   10101   20101   30101
 
    12552   12456   12551   12553   12648
        0   40101   10101   20101   30101
 
    12553   12457   12552   12554   12649
        0   40101   10101   20101   30101
 
    12554   12458   12553   12555   12650
        0   40101   10101   20101   30101
 
    12555   12459   12554   12556   12651
        0   40101   10101   20101   30101
 
    12556   12460   12555   12557   12652
        0   40101   10101   20101   30101
 
    12557   12461   12556   12558   12653
        0   40101   10101   20101   30101
 
    12558   12462   12557   12559   12654
        0   40101   10101   20101   30101
 
    12559   12463   12558   12560   12655
        0   40101   10101   20101   30101
 
    12560   12464   12559   12561   12656
        0   40101   10101   20101   30101
 
    12561   12465   12560   12562   12564   12657
        0   40101   10101   20102   20202   30101
 
    12562   12468   12561   12563   12564
        0   40101   10101   20101   30101
 
    12563   12469   12562   12565   12566   12568
        0   40101   10101   30101   20102   20202
 
    12564   12561   12562   12565   12658
        0   10101   40101   20101   30101
 
    12565   12563   12564   12574   12576   12659
        0   40101   10101   20102   20202   30101
 
    12566   12480   12563   12567   12568
        0   40101   10101   20101   30101
 
    12567   12481   12566   12569   12570
        0   40101   10101   30101   20101
 
    12568   12563   12566   12569   12574
        0   10101   40101   20101   30101
 
    12569   12567   12568   12572   12575
        0   40101   10101   20101   30101
 
    12570   12484   12567   12571   12572
        0   40101   10101   20101   30101
 
    12571   12485   12570   12573   12582
        0   40101   10101   30101   20101
 
    12572   12569   12570   12573   12578
        0   10101   40101   20101   30101
 
    12573   12571   12572   12579   12582
        0   40101   10101   30101   20101
 
    12574   12565   12568   12575   12576
        0   10101   40101   20101   30101
 
    12575   12569   12574   12577   12578
        0   40101   10101   30101   20101
 
    12576   12565   12574   12577   12662
        0   10101   40101   20101   30101
 
    12577   12575   12576   12580   12663
        0   40101   10101   20101   30101
 
    12578   12572   12575   12579   12580
        0   40101   10101   20101   30101
 
    12579   12573   12578   12581   12584
        0   40101   10101   30101   20101
 
    12580   12577   12578   12581   12666
        0   10101   40101   20101   30101
 
    12581   12579   12580   12584   12667
        0   40101   10101   20101   30101
 
    12582   12488   12571   12573   12583   12584
        0   40101   10102   10202   20101   30101
 
    12583   12489   12582   12585   12586
        0   40101   10101   30101   20101
 
    12584   12579   12581   12582   12585   12678
        0   10102   10202   40101   20101   30101
 
    12585   12583   12584   12586   12679
        0   40101   10101   20101   30101
 
    12586   12490   12583   12585   12587   12682
        0   40101   10102   10202   20101   30101
 
    12587   12491   12586   12588   12683
        0   40101   10101   20101   30101
 
    12588   12492   12587   12589   12684
        0   40101   10101   20101   30101
 
    12589   12493   12588   12590   12685
        0   40101   10101   20101   30101
 
    12590   12494   12589   12591   12686
        0   40101   10101   20101   30101
 
    12591   12495   12590   12592   12687
        0   40101   10101   20101   30101
 
    12592   12496   12591   12593   12688
        0   40101   10101   20101   30101
 
    12593   12497   12592   12594   12689
        0   40101   10101   20101   30101
 
    12594   12498   12593   12595   12690
        0   40101   10101   20101   30101
 
    12595   12499   12594   12596   12691
        0   40101   10101   20101   30101
 
    12596   12500   12595   12597   12692
        0   40101   10101   20101   30101
 
    12597   12501   12596   12598   12693
        0   40101   10101   20101   30101
 
    12598   12502   12597   12599   12694
        0   40101   10101   20101   30101
 
    12599   12503   12598   12600   12695
        0   40101   10101   20101   30101
 
    12600   12504   12599   12601   12696
        0   40101   10101   20101   30101
 
    12601   12505   12600   12602   12697
        0   40101   10101   20101   30101
 
    12602   12506   12601   12603   12698
        0   40101   10101   20101   30101
 
    12603   12507   12602   12604   12699
        0   40101   10101   20101   30101
 
    12604   12508   12603   12605   12700
        0   40101   10101   20101   30101
 
    12605   12509   12604   12606   12701
        0   40101   10101   20101   30101
 
    12606   12510   12605   12607   12702
        0   40101   10101   20101   30101
 
    12607   12511   12606   12608   12703
        0   40101   10101   20101   30101
 
    12608   12512   12607   12609   12704
        0   40101   10101   20101   30101
 
    12609   12513   12608   12610   12705
        0   40101   10101   20101   30101
 
    12610   12514   12609   12611   12706
        0   40101   10101   20101   30101
 
    12611   12515   12610   12612   12707
        0   40101   10101   20101   30101
 
    12612   12516   12611   12613   12708
        0   40101   10101   20101   30101
 
    12613   12517   12612   12614   12709
        0   40101   10101   20101   30101
 
    12614   12518   12613   12615   12710
        0   40101   10101   20101   30101
 
    12615   12519   12614   12616   12711
        0   40101   10101   20101   30101
 
    12616   12520   12615   12617   12712
        0   40101   10101   20101   30101
 
    12617   12521   12616   12618   12713
        0   40101   10101   20101   30101
 
    12618   12522   12617   12619   12714
        0   40101   10101   20101   30101
 
    12619   12523   12618   12620   12715
        0   40101   10101   20101   30101
 
    12620   12524   12619   12621   12716
        0   40101   10101   20101   30101
 
    12621   12525   12620   12717
        0   40101   10101   30101
 
    12622   12526   12623
        0   40101   20101
 
    12623   12527   12622   12624
        0   40101   10101   20101
 
    12624   12528   12623   12625
        0   40101   10101   20101
 
    12625   12529   12624   12626
        0   40101   10101   20101
 
    12626   12530   12625   12627
        0   40101   10101   20101
 
    12627   12531   12626   12628
        0   40101   10101   20101
 
    12628   12532   12627   12629
        0   40101   10101   20101
 
    12629   12533   12628   12630
        0   40101   10101   20101
 
    12630   12534   12629   12631
        0   40101   10101   20101
 
    12631   12535   12630   12632
        0   40101   10101   20101
 
    12632   12536   12631   12633
        0   40101   10101   20101
 
    12633   12537   12632   12634
        0   40101   10101   20101
 
    12634   12538   12633   12635
        0   40101   10101   20101
 
    12635   12539   12634   12636
        0   40101   10101   20101
 
    12636   12540   12635   12637
        0   40101   10101   20101
 
    12637   12541   12636   12638
        0   40101   10101   20101
 
    12638   12542   12637   12639
        0   40101   10101   20101
 
    12639   12543   12638   12640
        0   40101   10101   20101
 
    12640   12544   12639   12641
        0   40101   10101   20101
 
    12641   12545   12640   12642
        0   40101   10101   20101
 
    12642   12546   12641   12643
        0   40101   10101   20101
 
    12643   12547   12642   12644
        0   40101   10101   20101
 
    12644   12548   12643   12645
        0   40101   10101   20101
 
    12645   12549   12644   12646
        0   40101   10101   20101
 
    12646   12550   12645   12647
        0   40101   10101   20101
 
    12647   12551   12646   12648
        0   40101   10101   20101
 
    12648   12552   12647   12649
        0   40101   10101   20101
 
    12649   12553   12648   12650
        0   40101   10101   20101
 
    12650   12554   12649   12651
        0   40101   10101   20101
 
    12651   12555   12650   12652
        0   40101   10101   20101
 
    12652   12556   12651   12653
        0   40101   10101   20101
 
    12653   12557   12652   12654
        0   40101   10101   20101
 
    12654   12558   12653   12655
        0   40101   10101   20101
 
    12655   12559   12654   12656
        0   40101   10101   20101
 
    12656   12560   12655   12657
        0   40101   10101   20101
 
    12657   12561   12656   12658   12660
        0   40101   10101   20102   20202
 
    12658   12564   12657   12659   12660
        0   40101   10101   20101   30101
 
    12659   12565   12658   12661   12662   12664
        0   40101   10101   30101   20102   20202
 
    12660   12657   12658   12661
        0   10101   40101   20101
 
    12661   12659   12660   12670   12672
        0   40101   10101   20102   20202
 
    12662   12576   12659   12663   12664
        0   40101   10101   20101   30101
 
    12663   12577   12662   12665   12666
        0   40101   10101   30101   20101
 
    12664   12659   12662   12665   12670
        0   10101   40101   20101   30101
 
    12665   12663   12664   12668   12671
        0   40101   10101   20101   30101
 
    12666   12580   12663   12667   12668
        0   40101   10101   20101   30101
 
    12667   12581   12666   12669   12678
        0   40101   10101   30101   20101
 
    12668   12665   12666   12669   12674
        0   10101   40101   20101   30101
 
    12669   12667   12668   12675   12678
        0   40101   10101   30101   20101
 
    12670   12661   12664   12671   12672
        0   10101   40101   20101   30101
 
    12671   12665   12670   12673   12674
        0   40101   10101   30101   20101
 
    12672   12661   12670   12673
        0   10101   40101   20101
 
    12673   12671   12672   12676
        0   40101   10101   20101
 
    12674   12668   12671   12675   12676
        0   40101   10101   20101   30101
 
    12675   12669   12674   12677   12680
        0   40101   10101   30101   20101
 
    12676   12673   12674   12677
        0   10101   40101   20101
 
    12677   12675   12676   12680
        0   40101   10101   20101
 
    12678   12584   12667   12669   12679   12680
        0   40101   10102   10202   20101   30101
 
    12679   12585   12678   12681   12682
        0   40101   10101   30101   20101
 
    12680   12675   12677   12678   12681
        0   10102   10202   40101   20101
 
    12681   12679   12680   12682
        0   40101   10101   20101
 
    12682   12586   12679   12681   12683
        0   40101   10102   10202   20101
 
    12683   12587   12682   12684
        0   40101   10101   20101
 
    12684   12588   12683   12685
        0   40101   10101   20101
 
    12685   12589   12684   12686
        0   40101   10101   20101
 
    12686   12590   12685   12687
        0   40101   10101   20101
 
    12687   12591   12686   12688
        0   40101   10101   20101
 
    12688   12592   12687   12689
        0   40101   10101   20101
 
    12689   12593   12688   12690
        0   40101   10101   20101
 
    12690   12594   12689   12691
        0   40101   10101   20101
 
    12691   12595   12690   12692
        0   40101   10101   20101
 
    12692   12596   12691   12693
        0   40101   10101   20101
 
    12693   12597   12692   12694
        0   40101   10101   20101
 
    12694   12598   12693   12695
        0   40101   10101   20101
 
    12695   12599   12694   12696
        0   40101   10101   20101
 
    12696   12600   12695   12697
        0   40101   10101   20101
 
    12697   12601   12696   12698
        0   40101   10101   20101
 
    12698   12602   12697   12699
        0   40101   10101   20101
 
    12699   12603   12698   12700
        0   40101   10101   20101
 
    12700   12604   12699   12701
        0   40101   10101   20101
 
    12701   12605   12700   12702
        0   40101   10101   20101
 
    12702   12606   12701   12703
        0   40101   10101   20101
 
    12703   12607   12702   12704
        0   40101   10101   20101
 
    12704   12608   12703   12705
        0   40101   10101   20101
 
    12705   12609   12704   12706
        0   40101   10101   20101
 
    12706   12610   12705   12707
        0   40101   10101   20101
 
    12707   12611   12706   12708
        0   40101   10101   20101
 
    12708   12612   12707   12709
        0   40101   10101   20101
 
    12709   12613   12708   12710
        0   40101   10101   20101
 
    12710   12614   12709   12711
        0   40101   10101   20101
 
    12711   12615   12710   12712
        0   40101   10101   20101
 
    12712   12616   12711   12713
        0   40101   10101   20101
 
    12713   12617   12712   12714
        0   40101   10101   20101
 
    12714   12618   12713   12715
        0   40101   10101   20101
 
    12715   12619   12714   12716
        0   40101   10101   20101
 
    12716   12620   12715   12717
        0   40101   10101   20101
 
    12717   12621   12716
        0   40101   10101
 
Allocate budget reader component.
Open budget file in budget reader.
Allocate head reader component.
Open head file in head reader component.
Allocate MODPATH basic data component.
Read MODPATH basic data component.
Read the remainder of the MODPATH simulation data component.
Allocate particle tracking engine component.
Compute range of time steps. Prepare for time step loop                                                                             
Begin TIME_STEP_LOOP
Compute TSMAX                                                                                                                       
Begin TRACKING_INTERVAL_LOOP
Exit TRACKING_INTERVAL_LOOP
Exit TIME_STEP_LOOP
Write endpoint file.
Consolidating pathline segments.
Begin memory deallocation.
Memory deallocation complete.
