Get the name of the MODPATH simulation file.
Read the first two records of the simulation file to get mpnamFile and mplistFile ...
Allocate rectangular unstructured grid component.
Allocate time discretization data component ...
Allocate disvMf6Grid.
Read DISV binary grid file.
Read time discretization data component ...

 ----------------------------------------------------------
 Cell connection data:
 ----------------------------------------------------------
 Format has two lines for each cell, listed by cell number.
 Line 1: Cell connections
 Line 1: Face assignment codes
 ----------------------------------------------------------
        1       2     139
        0   20101   30101

        2       1       3     140
        0   10101   20101   30101

        3       2       4     141
        0   10101   20101   30101

        4       3       5     142
        0   10101   20101   30101

        5       4       6     143
        0   10101   20101   30101

        6       5       7     144
        0   10101   20101   30101

        7       6       8     145
        0   10101   20101   30101

        8       7       9     146
        0   10101   20101   30101

        9       8      10     147
        0   10101   20101   30101

       10       9      11     148
        0   10101   20101   30101

       11      10      12     149
        0   10101   20101   30101

       12      11      13     150
        0   10101   20101   30101

       13      12      14     151
        0   10101   20101   30101

       14      13      15     152
        0   10101   20101   30101

       15      14      16     153
        0   10101   20101   30101

       16      15      17     154
        0   10101   20101   30101

       17      16      18     155
        0   10101   20101   30101

       18      17      19     156
        0   10101   20101   30101

       19      18      20     157
        0   10101   20101   30101

       20      19      21     158
        0   10101   20101   30101

       21      20      22     159
        0   10101   20101   30101

       22      21      23     160
        0   10101   20101   30101

       23      22      24     161
        0   10101   20101   30101

       24      23      25     162
        0   10101   20101   30101

       25      24      26     163
        0   10101   20101   30101

       26      25      27     164
        0   10101   20101   30101

       27      26      28     165
        0   10101   20101   30101

       28      27      29     166
        0   10101   20101   30101

       29      28      30     167
        0   10101   20101   30101

       30      29      31     168
        0   10101   20101   30101

       31      30      32     169
        0   10101   20101   30101

       32      31      33     170
        0   10101   20101   30101

       33      32      34     171
        0   10101   20101   30101

       34      33      35     172
        0   10101   20101   30101

       35      34      36      41     173
        0   10101   20102   20202   30101

       36      35      37      39      41
        0   10101   20102   20202   30101

       37      36      38      39
        0   10101   20101   30101

       38      37      40      46
        0   10101   30101   20101

       39      36      37      40      42
        0   10101   40101   20101   30101

       40      38      39      43      48
        0   40101   10101   30101   20101

       41      35      36      42      44     174
        0   10101   40101   20102   20202   30101

       42      39      41      43      44
        0   40101   10101   20101   30101

       43      40      42      45      54
        0   40101   10101   30101   20101

       44      41      42      45     175
        0   10101   40101   20101   30101

       45      43      44      56     176
        0   40101   10101   20101   30101

       46      38      47      48
        0   10101   20101   30101

       47      46      49      50
        0   10101   30101   20101

       48      40      46      49      54
        0   10101   40101   20101   30101

       49      47      48      52      55
        0   40101   10101   20101   30101

       50      47      51      52
        0   10101   20101   30101

       51      50      53      62
        0   10101   30101   20101

       52      49      50      53      58
        0   10101   40101   20101   30101

       53      51      52      59      64
        0   40101   10101   30101   20101

       54      43      48      55      56
        0   10101   40101   20101   30101

       55      49      54      57      58
        0   40101   10101   30101   20101

       56      45      54      57     184
        0   10101   40101   20101   30101

       57      55      56      60     185
        0   40101   10101   20101   30101

       58      52      55      59      60
        0   40101   10101   20101   30101

       59      53      58      61      70
        0   40101   10101   30101   20101

       60      57      58      61     188
        0   10101   40101   20101   30101

       61      59      60      72     189
        0   40101   10101   20101   30101

       62      51      63      64
        0   10101   20101   30101

       63      62      65      66
        0   10101   30101   20101

       64      53      62      65      70
        0   10101   40101   20101   30101

       65      63      64      68      71
        0   40101   10101   20101   30101

       66      63      67      68
        0   10101   20101   30101

       67      66      69      78
        0   10101   30101   20101

       68      65      66      69      74
        0   10101   40101   20101   30101

       69      67      68      75      80
        0   40101   10101   30101   20101

       70      59      64      71      72
        0   10101   40101   20101   30101

       71      65      70      73      74
        0   40101   10101   30101   20101

       72      61      70      73     200
        0   10101   40101   20101   30101

       73      71      72      76     201
        0   40101   10101   20101   30101

       74      68      71      75      76
        0   40101   10101   20101   30101

       75      69      74      77      86
        0   40101   10101   30101   20101

       76      73      74      77     204
        0   10101   40101   20101   30101

       77      75      76      88     205
        0   40101   10101   20101   30101

       78      67      79      80
        0   10101   20101   30101

       79      78      81      82
        0   10101   30101   20101

       80      69      78      81      86
        0   10101   40101   20101   30101

       81      79      80      84      87
        0   40101   10101   20101   30101

       82      79      83      84
        0   10101   20101   30101

       83      82      85      94
        0   10101   30101   20101

       84      81      82      85      90
        0   10101   40101   20101   30101

       85      83      84      91      96
        0   40101   10101   30101   20101

       86      75      80      87      88
        0   10101   40101   20101   30101

       87      81      86      89      90
        0   40101   10101   30101   20101

       88      77      86      89     216
        0   10101   40101   20101   30101

       89      87      88      92     217
        0   40101   10101   20101   30101

       90      84      87      91      92
        0   40101   10101   20101   30101

       91      85      90      93      99
        0   40101   10101   30101   20101

       92      89      90      93     220
        0   10101   40101   20101   30101

       93      91      92     101     221
        0   40101   10101   20101   30101

       94      83      95      96
        0   10101   20101   30101

       95      94      97      98
        0   10101   30101   20101

       96      85      94      97      99
        0   10101   40101   20101   30101

       97      95      96      98     100
        0   40101   10101   20101   30101

       98      95      97     103     104
        0   10102   10202   30101   20101

       99      91      96     100     101
        0   10101   40101   20101   30101

      100      97      99     102     103
        0   40101   10101   30101   20101

      101      93      99     102     232
        0   10101   40101   20101   30101

      102     100     101     103     233
        0   40101   10101   20101   30101

      103      98     100     102     104     236
        0   40101   10102   10202   20101   30101

      104      98     103     105     242
        0   10102   10202   20101   30101

      105     104     106     243
        0   10101   20101   30101

      106     105     107     244
        0   10101   20101   30101

      107     106     108     245
        0   10101   20101   30101

      108     107     109     246
        0   10101   20101   30101

      109     108     110     247
        0   10101   20101   30101

      110     109     111     248
        0   10101   20101   30101

      111     110     112     249
        0   10101   20101   30101

      112     111     113     250
        0   10101   20101   30101

      113     112     114     251
        0   10101   20101   30101

      114     113     115     252
        0   10101   20101   30101

      115     114     116     253
        0   10101   20101   30101

      116     115     117     254
        0   10101   20101   30101

      117     116     118     255
        0   10101   20101   30101

      118     117     119     256
        0   10101   20101   30101

      119     118     120     257
        0   10101   20101   30101

      120     119     121     258
        0   10101   20101   30101

      121     120     122     259
        0   10101   20101   30101

      122     121     123     260
        0   10101   20101   30101

      123     122     124     261
        0   10101   20101   30101

      124     123     125     262
        0   10101   20101   30101

      125     124     126     263
        0   10101   20101   30101

      126     125     127     264
        0   10101   20101   30101

      127     126     128     265
        0   10101   20101   30101

      128     127     129     266
        0   10101   20101   30101

      129     128     130     267
        0   10101   20101   30101

      130     129     131     268
        0   10101   20101   30101

      131     130     132     269
        0   10101   20101   30101

      132     131     133     270
        0   10101   20101   30101

      133     132     134     271
        0   10101   20101   30101

      134     133     135     272
        0   10101   20101   30101

      135     134     136     273
        0   10101   20101   30101

      136     135     137     274
        0   10101   20101   30101

      137     136     138     275
        0   10101   20101   30101

      138     137     276
        0   10101   30101

      139       1     140     277
        0   40101   20101   30101

      140       2     139     141     278
        0   40101   10101   20101   30101

      141       3     140     142     279
        0   40101   10101   20101   30101

      142       4     141     143     280
        0   40101   10101   20101   30101

      143       5     142     144     281
        0   40101   10101   20101   30101

      144       6     143     145     282
        0   40101   10101   20101   30101

      145       7     144     146     283
        0   40101   10101   20101   30101

      146       8     145     147     284
        0   40101   10101   20101   30101

      147       9     146     148     285
        0   40101   10101   20101   30101

      148      10     147     149     286
        0   40101   10101   20101   30101

      149      11     148     150     287
        0   40101   10101   20101   30101

      150      12     149     151     288
        0   40101   10101   20101   30101

      151      13     150     152     289
        0   40101   10101   20101   30101

      152      14     151     153     290
        0   40101   10101   20101   30101

      153      15     152     154     291
        0   40101   10101   20101   30101

      154      16     153     155     292
        0   40101   10101   20101   30101

      155      17     154     156     293
        0   40101   10101   20101   30101

      156      18     155     157     294
        0   40101   10101   20101   30101

      157      19     156     158     295
        0   40101   10101   20101   30101

      158      20     157     159     296
        0   40101   10101   20101   30101

      159      21     158     160     297
        0   40101   10101   20101   30101

      160      22     159     161     298
        0   40101   10101   20101   30101

      161      23     160     162     299
        0   40101   10101   20101   30101

      162      24     161     163     300
        0   40101   10101   20101   30101

      163      25     162     164     301
        0   40101   10101   20101   30101

      164      26     163     165     302
        0   40101   10101   20101   30101

      165      27     164     166     303
        0   40101   10101   20101   30101

      166      28     165     167     304
        0   40101   10101   20101   30101

      167      29     166     168     305
        0   40101   10101   20101   30101

      168      30     167     169     306
        0   40101   10101   20101   30101

      169      31     168     170     307
        0   40101   10101   20101   30101

      170      32     169     171     308
        0   40101   10101   20101   30101

      171      33     170     172     309
        0   40101   10101   20101   30101

      172      34     171     173     310
        0   40101   10101   20101   30101

      173      35     172     174     179     311
        0   40101   10101   20102   20202   30101

      174      41     173     175     177     179
        0   40101   10101   20102   20202   30101

      175      44     174     176     177
        0   40101   10101   20101   30101

      176      45     175     178     184
        0   40101   10101   30101   20101

      177     174     175     178     180
        0   10101   40101   20101   30101

      178     176     177     181     186
        0   40101   10101   30101   20101

      179     173     174     180     182     312
        0   10101   40101   20102   20202   30101

      180     177     179     181     182
        0   40101   10101   20101   30101

      181     178     180     183     192
        0   40101   10101   30101   20101

      182     179     180     183     313
        0   10101   40101   20101   30101

      183     181     182     194     314
        0   40101   10101   20101   30101

      184      56     176     185     186
        0   40101   10101   20101   30101

      185      57     184     187     188
        0   40101   10101   30101   20101

      186     178     184     187     192
        0   10101   40101   20101   30101

      187     185     186     190     193
        0   40101   10101   20101   30101

      188      60     185     189     190
        0   40101   10101   20101   30101

      189      61     188     191     200
        0   40101   10101   30101   20101

      190     187     188     191     196
        0   10101   40101   20101   30101

      191     189     190     197     202
        0   40101   10101   30101   20101

      192     181     186     193     194
        0   10101   40101   20101   30101

      193     187     192     195     196
        0   40101   10101   30101   20101

      194     183     192     195     322
        0   10101   40101   20101   30101

      195     193     194     198     323
        0   40101   10101   20101   30101

      196     190     193     197     198
        0   40101   10101   20101   30101

      197     191     196     199     208
        0   40101   10101   30101   20101

      198     195     196     199     326
        0   10101   40101   20101   30101

      199     197     198     210     327
        0   40101   10101   20101   30101

      200      72     189     201     202
        0   40101   10101   20101   30101

      201      73     200     203     204
        0   40101   10101   30101   20101

      202     191     200     203     208
        0   10101   40101   20101   30101

      203     201     202     206     209
        0   40101   10101   20101   30101

      204      76     201     205     206
        0   40101   10101   20101   30101

      205      77     204     207     216
        0   40101   10101   30101   20101

      206     203     204     207     212
        0   10101   40101   20101   30101

      207     205     206     213     218
        0   40101   10101   30101   20101

      208     197     202     209     210
        0   10101   40101   20101   30101

      209     203     208     211     212
        0   40101   10101   30101   20101

      210     199     208     211     338
        0   10101   40101   20101   30101

      211     209     210     214     339
        0   40101   10101   20101   30101

      212     206     209     213     214
        0   40101   10101   20101   30101

      213     207     212     215     224
        0   40101   10101   30101   20101

      214     211     212     215     342
        0   10101   40101   20101   30101

      215     213     214     226     343
        0   40101   10101   20101   30101

      216      88     205     217     218
        0   40101   10101   20101   30101

      217      89     216     219     220
        0   40101   10101   30101   20101

      218     207     216     219     224
        0   10101   40101   20101   30101

      219     217     218     222     225
        0   40101   10101   20101   30101

      220      92     217     221     222
        0   40101   10101   20101   30101

      221      93     220     223     232
        0   40101   10101   30101   20101

      222     219     220     223     228
        0   10101   40101   20101   30101

      223     221     222     229     234
        0   40101   10101   30101   20101

      224     213     218     225     226
        0   10101   40101   20101   30101

      225     219     224     227     228
        0   40101   10101   30101   20101

      226     215     224     227     354
        0   10101   40101   20101   30101

      227     225     226     230     355
        0   40101   10101   20101   30101

      228     222     225     229     230
        0   40101   10101   20101   30101

      229     223     228     231     237
        0   40101   10101   30101   20101

      230     227     228     231     358
        0   10101   40101   20101   30101

      231     229     230     239     359
        0   40101   10101   20101   30101

      232     101     221     233     234
        0   40101   10101   20101   30101

      233     102     232     235     236
        0   40101   10101   30101   20101

      234     223     232     235     237
        0   10101   40101   20101   30101

      235     233     234     236     238
        0   40101   10101   20101   30101

      236     103     233     235     241     242
        0   40101   10102   10202   30101   20101

      237     229     234     238     239
        0   10101   40101   20101   30101

      238     235     237     240     241
        0   40101   10101   30101   20101

      239     231     237     240     370
        0   10101   40101   20101   30101

      240     238     239     241     371
        0   40101   10101   20101   30101

      241     236     238     240     242     374
        0   40101   10102   10202   20101   30101

      242     104     236     241     243     380
        0   40101   10102   10202   20101   30101

      243     105     242     244     381
        0   40101   10101   20101   30101

      244     106     243     245     382
        0   40101   10101   20101   30101

      245     107     244     246     383
        0   40101   10101   20101   30101

      246     108     245     247     384
        0   40101   10101   20101   30101

      247     109     246     248     385
        0   40101   10101   20101   30101

      248     110     247     249     386
        0   40101   10101   20101   30101

      249     111     248     250     387
        0   40101   10101   20101   30101

      250     112     249     251     388
        0   40101   10101   20101   30101

      251     113     250     252     389
        0   40101   10101   20101   30101

      252     114     251     253     390
        0   40101   10101   20101   30101

      253     115     252     254     391
        0   40101   10101   20101   30101

      254     116     253     255     392
        0   40101   10101   20101   30101

      255     117     254     256     393
        0   40101   10101   20101   30101

      256     118     255     257     394
        0   40101   10101   20101   30101

      257     119     256     258     395
        0   40101   10101   20101   30101

      258     120     257     259     396
        0   40101   10101   20101   30101

      259     121     258     260     397
        0   40101   10101   20101   30101

      260     122     259     261     398
        0   40101   10101   20101   30101

      261     123     260     262     399
        0   40101   10101   20101   30101

      262     124     261     263     400
        0   40101   10101   20101   30101

      263     125     262     264     401
        0   40101   10101   20101   30101

      264     126     263     265     402
        0   40101   10101   20101   30101

      265     127     264     266     403
        0   40101   10101   20101   30101

      266     128     265     267     404
        0   40101   10101   20101   30101

      267     129     266     268     405
        0   40101   10101   20101   30101

      268     130     267     269     406
        0   40101   10101   20101   30101

      269     131     268     270     407
        0   40101   10101   20101   30101

      270     132     269     271     408
        0   40101   10101   20101   30101

      271     133     270     272     409
        0   40101   10101   20101   30101

      272     134     271     273     410
        0   40101   10101   20101   30101

      273     135     272     274     411
        0   40101   10101   20101   30101

      274     136     273     275     412
        0   40101   10101   20101   30101

      275     137     274     276     413
        0   40101   10101   20101   30101

      276     138     275     414
        0   40101   10101   30101

      277     139     278     415
        0   40101   20101   30101

      278     140     277     279     416
        0   40101   10101   20101   30101

      279     141     278     280     417
        0   40101   10101   20101   30101

      280     142     279     281     418
        0   40101   10101   20101   30101

      281     143     280     282     419
        0   40101   10101   20101   30101

      282     144     281     283     420
        0   40101   10101   20101   30101

      283     145     282     284     421
        0   40101   10101   20101   30101

      284     146     283     285     422
        0   40101   10101   20101   30101

      285     147     284     286     423
        0   40101   10101   20101   30101

      286     148     285     287     424
        0   40101   10101   20101   30101

      287     149     286     288     425
        0   40101   10101   20101   30101

      288     150     287     289     426
        0   40101   10101   20101   30101

      289     151     288     290     427
        0   40101   10101   20101   30101

      290     152     289     291     428
        0   40101   10101   20101   30101

      291     153     290     292     429
        0   40101   10101   20101   30101

      292     154     291     293     430
        0   40101   10101   20101   30101

      293     155     292     294     431
        0   40101   10101   20101   30101

      294     156     293     295     432
        0   40101   10101   20101   30101

      295     157     294     296     433
        0   40101   10101   20101   30101

      296     158     295     297     434
        0   40101   10101   20101   30101

      297     159     296     298     435
        0   40101   10101   20101   30101

      298     160     297     299     436
        0   40101   10101   20101   30101

      299     161     298     300     437
        0   40101   10101   20101   30101

      300     162     299     301     438
        0   40101   10101   20101   30101

      301     163     300     302     439
        0   40101   10101   20101   30101

      302     164     301     303     440
        0   40101   10101   20101   30101

      303     165     302     304     441
        0   40101   10101   20101   30101

      304     166     303     305     442
        0   40101   10101   20101   30101

      305     167     304     306     443
        0   40101   10101   20101   30101

      306     168     305     307     444
        0   40101   10101   20101   30101

      307     169     306     308     445
        0   40101   10101   20101   30101

      308     170     307     309     446
        0   40101   10101   20101   30101

      309     171     308     310     447
        0   40101   10101   20101   30101

      310     172     309     311     448
        0   40101   10101   20101   30101

      311     173     310     312     317     449
        0   40101   10101   20102   20202   30101

      312     179     311     313     315     317
        0   40101   10101   20102   20202   30101

      313     182     312     314     315
        0   40101   10101   20101   30101

      314     183     313     316     322
        0   40101   10101   30101   20101

      315     312     313     316     318
        0   10101   40101   20101   30101

      316     314     315     319     324
        0   40101   10101   30101   20101

      317     311     312     318     320     450
        0   10101   40101   20102   20202   30101

      318     315     317     319     320
        0   40101   10101   20101   30101

      319     316     318     321     330
        0   40101   10101   30101   20101

      320     317     318     321     451
        0   10101   40101   20101   30101

      321     319     320     332     452
        0   40101   10101   20101   30101

      322     194     314     323     324
        0   40101   10101   20101   30101

      323     195     322     325     326
        0   40101   10101   30101   20101

      324     316     322     325     330
        0   10101   40101   20101   30101

      325     323     324     328     331
        0   40101   10101   20101   30101

      326     198     323     327     328
        0   40101   10101   20101   30101

      327     199     326     329     338
        0   40101   10101   30101   20101

      328     325     326     329     334
        0   10101   40101   20101   30101

      329     327     328     335     340
        0   40101   10101   30101   20101

      330     319     324     331     332
        0   10101   40101   20101   30101

      331     325     330     333     334
        0   40101   10101   30101   20101

      332     321     330     333     460
        0   10101   40101   20101   30101

      333     331     332     336     461
        0   40101   10101   20101   30101

      334     328     331     335     336
        0   40101   10101   20101   30101

      335     329     334     337     346
        0   40101   10101   30101   20101

      336     333     334     337     464
        0   10101   40101   20101   30101

      337     335     336     348     465
        0   40101   10101   20101   30101

      338     210     327     339     340
        0   40101   10101   20101   30101

      339     211     338     341     342
        0   40101   10101   30101   20101

      340     329     338     341     346
        0   10101   40101   20101   30101

      341     339     340     344     347
        0   40101   10101   20101   30101

      342     214     339     343     344
        0   40101   10101   20101   30101

      343     215     342     345     354
        0   40101   10101   30101   20101

      344     341     342     345     350
        0   10101   40101   20101   30101

      345     343     344     351     356
        0   40101   10101   30101   20101

      346     335     340     347     348
        0   10101   40101   20101   30101

      347     341     346     349     350
        0   40101   10101   30101   20101

      348     337     346     349     476
        0   10101   40101   20101   30101

      349     347     348     352     477
        0   40101   10101   20101   30101

      350     344     347     351     352
        0   40101   10101   20101   30101

      351     345     350     353     362
        0   40101   10101   30101   20101

      352     349     350     353     480
        0   10101   40101   20101   30101

      353     351     352     364     481
        0   40101   10101   20101   30101

      354     226     343     355     356
        0   40101   10101   20101   30101

      355     227     354     357     358
        0   40101   10101   30101   20101

      356     345     354     357     362
        0   10101   40101   20101   30101

      357     355     356     360     363
        0   40101   10101   20101   30101

      358     230     355     359     360
        0   40101   10101   20101   30101

      359     231     358     361     370
        0   40101   10101   30101   20101

      360     357     358     361     366
        0   10101   40101   20101   30101

      361     359     360     367     372
        0   40101   10101   30101   20101

      362     351     356     363     364
        0   10101   40101   20101   30101

      363     357     362     365     366
        0   40101   10101   30101   20101

      364     353     362     365     492
        0   10101   40101   20101   30101

      365     363     364     368     493
        0   40101   10101   20101   30101

      366     360     363     367     368
        0   40101   10101   20101   30101

      367     361     366     369     375
        0   40101   10101   30101   20101

      368     365     366     369     496
        0   10101   40101   20101   30101

      369     367     368     377     497
        0   40101   10101   20101   30101

      370     239     359     371     372
        0   40101   10101   20101   30101

      371     240     370     373     374
        0   40101   10101   30101   20101

      372     361     370     373     375
        0   10101   40101   20101   30101

      373     371     372     374     376
        0   40101   10101   20101   30101

      374     241     371     373     379     380
        0   40101   10102   10202   30101   20101

      375     367     372     376     377
        0   10101   40101   20101   30101

      376     373     375     378     379
        0   40101   10101   30101   20101

      377     369     375     378     508
        0   10101   40101   20101   30101

      378     376     377     379     509
        0   40101   10101   20101   30101

      379     374     376     378     380     512
        0   40101   10102   10202   20101   30101

      380     242     374     379     381     518
        0   40101   10102   10202   20101   30101

      381     243     380     382     519
        0   40101   10101   20101   30101

      382     244     381     383     520
        0   40101   10101   20101   30101

      383     245     382     384     521
        0   40101   10101   20101   30101

      384     246     383     385     522
        0   40101   10101   20101   30101

      385     247     384     386     523
        0   40101   10101   20101   30101

      386     248     385     387     524
        0   40101   10101   20101   30101

      387     249     386     388     525
        0   40101   10101   20101   30101

      388     250     387     389     526
        0   40101   10101   20101   30101

      389     251     388     390     527
        0   40101   10101   20101   30101

      390     252     389     391     528
        0   40101   10101   20101   30101

      391     253     390     392     529
        0   40101   10101   20101   30101

      392     254     391     393     530
        0   40101   10101   20101   30101

      393     255     392     394     531
        0   40101   10101   20101   30101

      394     256     393     395     532
        0   40101   10101   20101   30101

      395     257     394     396     533
        0   40101   10101   20101   30101

      396     258     395     397     534
        0   40101   10101   20101   30101

      397     259     396     398     535
        0   40101   10101   20101   30101

      398     260     397     399     536
        0   40101   10101   20101   30101

      399     261     398     400     537
        0   40101   10101   20101   30101

      400     262     399     401     538
        0   40101   10101   20101   30101

      401     263     400     402     539
        0   40101   10101   20101   30101

      402     264     401     403     540
        0   40101   10101   20101   30101

      403     265     402     404     541
        0   40101   10101   20101   30101

      404     266     403     405     542
        0   40101   10101   20101   30101

      405     267     404     406     543
        0   40101   10101   20101   30101

      406     268     405     407     544
        0   40101   10101   20101   30101

      407     269     406     408     545
        0   40101   10101   20101   30101

      408     270     407     409     546
        0   40101   10101   20101   30101

      409     271     408     410     547
        0   40101   10101   20101   30101

      410     272     409     411     548
        0   40101   10101   20101   30101

      411     273     410     412     549
        0   40101   10101   20101   30101

      412     274     411     413     550
        0   40101   10101   20101   30101

      413     275     412     414     551
        0   40101   10101   20101   30101

      414     276     413     552
        0   40101   10101   30101

      415     277     416     553
        0   40101   20101   30101

      416     278     415     417     554
        0   40101   10101   20101   30101

      417     279     416     418     555
        0   40101   10101   20101   30101

      418     280     417     419     556
        0   40101   10101   20101   30101

      419     281     418     420     557
        0   40101   10101   20101   30101

      420     282     419     421     558
        0   40101   10101   20101   30101

      421     283     420     422     559
        0   40101   10101   20101   30101

      422     284     421     423     560
        0   40101   10101   20101   30101

      423     285     422     424     561
        0   40101   10101   20101   30101

      424     286     423     425     562
        0   40101   10101   20101   30101

      425     287     424     426     563
        0   40101   10101   20101   30101

      426     288     425     427     564
        0   40101   10101   20101   30101

      427     289     426     428     565
        0   40101   10101   20101   30101

      428     290     427     429     566
        0   40101   10101   20101   30101

      429     291     428     430     567
        0   40101   10101   20101   30101

      430     292     429     431     568
        0   40101   10101   20101   30101

      431     293     430     432     569
        0   40101   10101   20101   30101

      432     294     431     433     570
        0   40101   10101   20101   30101

      433     295     432     434     571
        0   40101   10101   20101   30101

      434     296     433     435     572
        0   40101   10101   20101   30101

      435     297     434     436     573
        0   40101   10101   20101   30101

      436     298     435     437     574
        0   40101   10101   20101   30101

      437     299     436     438     575
        0   40101   10101   20101   30101

      438     300     437     439     576
        0   40101   10101   20101   30101

      439     301     438     440     577
        0   40101   10101   20101   30101

      440     302     439     441     578
        0   40101   10101   20101   30101

      441     303     440     442     579
        0   40101   10101   20101   30101

      442     304     441     443     580
        0   40101   10101   20101   30101

      443     305     442     444     581
        0   40101   10101   20101   30101

      444     306     443     445     582
        0   40101   10101   20101   30101

      445     307     444     446     583
        0   40101   10101   20101   30101

      446     308     445     447     584
        0   40101   10101   20101   30101

      447     309     446     448     585
        0   40101   10101   20101   30101

      448     310     447     449     586
        0   40101   10101   20101   30101

      449     311     448     450     455     587
        0   40101   10101   20102   20202   30101

      450     317     449     451     453     455
        0   40101   10101   20102   20202   30101

      451     320     450     452     453
        0   40101   10101   20101   30101

      452     321     451     454     460
        0   40101   10101   30101   20101

      453     450     451     454     456
        0   10101   40101   20101   30101

      454     452     453     457     462
        0   40101   10101   30101   20101

      455     449     450     456     458     588
        0   10101   40101   20102   20202   30101

      456     453     455     457     458
        0   40101   10101   20101   30101

      457     454     456     459     468
        0   40101   10101   30101   20101

      458     455     456     459     589
        0   10101   40101   20101   30101

      459     457     458     470     590
        0   40101   10101   20101   30101

      460     332     452     461     462
        0   40101   10101   20101   30101

      461     333     460     463     464
        0   40101   10101   30101   20101

      462     454     460     463     468
        0   10101   40101   20101   30101

      463     461     462     466     469
        0   40101   10101   20101   30101

      464     336     461     465     466
        0   40101   10101   20101   30101

      465     337     464     467     476
        0   40101   10101   30101   20101

      466     463     464     467     472
        0   10101   40101   20101   30101

      467     465     466     473     478
        0   40101   10101   30101   20101

      468     457     462     469     470
        0   10101   40101   20101   30101

      469     463     468     471     472
        0   40101   10101   30101   20101

      470     459     468     471     598
        0   10101   40101   20101   30101

      471     469     470     474     599
        0   40101   10101   20101   30101

      472     466     469     473     474
        0   40101   10101   20101   30101

      473     467     472     475     484
        0   40101   10101   30101   20101

      474     471     472     475     602
        0   10101   40101   20101   30101

      475     473     474     486     603
        0   40101   10101   20101   30101

      476     348     465     477     478
        0   40101   10101   20101   30101

      477     349     476     479     480
        0   40101   10101   30101   20101

      478     467     476     479     484
        0   10101   40101   20101   30101

      479     477     478     482     485
        0   40101   10101   20101   30101

      480     352     477     481     482
        0   40101   10101   20101   30101

      481     353     480     483     492
        0   40101   10101   30101   20101

      482     479     480     483     488
        0   10101   40101   20101   30101

      483     481     482     489     494
        0   40101   10101   30101   20101

      484     473     478     485     486
        0   10101   40101   20101   30101

      485     479     484     487     488
        0   40101   10101   30101   20101

      486     475     484     487     614
        0   10101   40101   20101   30101

      487     485     486     490     615
        0   40101   10101   20101   30101

      488     482     485     489     490
        0   40101   10101   20101   30101

      489     483     488     491     500
        0   40101   10101   30101   20101

      490     487     488     491     618
        0   10101   40101   20101   30101

      491     489     490     502     619
        0   40101   10101   20101   30101

      492     364     481     493     494
        0   40101   10101   20101   30101

      493     365     492     495     496
        0   40101   10101   30101   20101

      494     483     492     495     500
        0   10101   40101   20101   30101

      495     493     494     498     501
        0   40101   10101   20101   30101

      496     368     493     497     498
        0   40101   10101   20101   30101

      497     369     496     499     508
        0   40101   10101   30101   20101

      498     495     496     499     504
        0   10101   40101   20101   30101

      499     497     498     505     510
        0   40101   10101   30101   20101

      500     489     494     501     502
        0   10101   40101   20101   30101

      501     495     500     503     504
        0   40101   10101   30101   20101

      502     491     500     503     630
        0   10101   40101   20101   30101

      503     501     502     506     631
        0   40101   10101   20101   30101

      504     498     501     505     506
        0   40101   10101   20101   30101

      505     499     504     507     513
        0   40101   10101   30101   20101

      506     503     504     507     634
        0   10101   40101   20101   30101

      507     505     506     515     635
        0   40101   10101   20101   30101

      508     377     497     509     510
        0   40101   10101   20101   30101

      509     378     508     511     512
        0   40101   10101   30101   20101

      510     499     508     511     513
        0   10101   40101   20101   30101

      511     509     510     512     514
        0   40101   10101   20101   30101

      512     379     509     511     517     518
        0   40101   10102   10202   30101   20101

      513     505     510     514     515
        0   10101   40101   20101   30101

      514     511     513     516     517
        0   40101   10101   30101   20101

      515     507     513     516     646
        0   10101   40101   20101   30101

      516     514     515     517     647
        0   40101   10101   20101   30101

      517     512     514     516     518     650
        0   40101   10102   10202   20101   30101

      518     380     512     517     519     656
        0   40101   10102   10202   20101   30101

      519     381     518     520     657
        0   40101   10101   20101   30101

      520     382     519     521     658
        0   40101   10101   20101   30101

      521     383     520     522     659
        0   40101   10101   20101   30101

      522     384     521     523     660
        0   40101   10101   20101   30101

      523     385     522     524     661
        0   40101   10101   20101   30101

      524     386     523     525     662
        0   40101   10101   20101   30101

      525     387     524     526     663
        0   40101   10101   20101   30101

      526     388     525     527     664
        0   40101   10101   20101   30101

      527     389     526     528     665
        0   40101   10101   20101   30101

      528     390     527     529     666
        0   40101   10101   20101   30101

      529     391     528     530     667
        0   40101   10101   20101   30101

      530     392     529     531     668
        0   40101   10101   20101   30101

      531     393     530     532     669
        0   40101   10101   20101   30101

      532     394     531     533     670
        0   40101   10101   20101   30101

      533     395     532     534     671
        0   40101   10101   20101   30101

      534     396     533     535     672
        0   40101   10101   20101   30101

      535     397     534     536     673
        0   40101   10101   20101   30101

      536     398     535     537     674
        0   40101   10101   20101   30101

      537     399     536     538     675
        0   40101   10101   20101   30101

      538     400     537     539     676
        0   40101   10101   20101   30101

      539     401     538     540     677
        0   40101   10101   20101   30101

      540     402     539     541     678
        0   40101   10101   20101   30101

      541     403     540     542     679
        0   40101   10101   20101   30101

      542     404     541     543     680
        0   40101   10101   20101   30101

      543     405     542     544     681
        0   40101   10101   20101   30101

      544     406     543     545     682
        0   40101   10101   20101   30101

      545     407     544     546     683
        0   40101   10101   20101   30101

      546     408     545     547     684
        0   40101   10101   20101   30101

      547     409     546     548     685
        0   40101   10101   20101   30101

      548     410     547     549     686
        0   40101   10101   20101   30101

      549     411     548     550     687
        0   40101   10101   20101   30101

      550     412     549     551     688
        0   40101   10101   20101   30101

      551     413     550     552     689
        0   40101   10101   20101   30101

      552     414     551     690
        0   40101   10101   30101

      553     415     554     691
        0   40101   20101   30101

      554     416     553     555     692
        0   40101   10101   20101   30101

      555     417     554     556     693
        0   40101   10101   20101   30101

      556     418     555     557     694
        0   40101   10101   20101   30101

      557     419     556     558     695
        0   40101   10101   20101   30101

      558     420     557     559     696
        0   40101   10101   20101   30101

      559     421     558     560     697
        0   40101   10101   20101   30101

      560     422     559     561     698
        0   40101   10101   20101   30101

      561     423     560     562     699
        0   40101   10101   20101   30101

      562     424     561     563     700
        0   40101   10101   20101   30101

      563     425     562     564     701
        0   40101   10101   20101   30101

      564     426     563     565     702
        0   40101   10101   20101   30101

      565     427     564     566     703
        0   40101   10101   20101   30101

      566     428     565     567     704
        0   40101   10101   20101   30101

      567     429     566     568     705
        0   40101   10101   20101   30101

      568     430     567     569     706
        0   40101   10101   20101   30101

      569     431     568     570     707
        0   40101   10101   20101   30101

      570     432     569     571     708
        0   40101   10101   20101   30101

      571     433     570     572     709
        0   40101   10101   20101   30101

      572     434     571     573     710
        0   40101   10101   20101   30101

      573     435     572     574     711
        0   40101   10101   20101   30101

      574     436     573     575     712
        0   40101   10101   20101   30101

      575     437     574     576     713
        0   40101   10101   20101   30101

      576     438     575     577     714
        0   40101   10101   20101   30101

      577     439     576     578     715
        0   40101   10101   20101   30101

      578     440     577     579     716
        0   40101   10101   20101   30101

      579     441     578     580     717
        0   40101   10101   20101   30101

      580     442     579     581     718
        0   40101   10101   20101   30101

      581     443     580     582     719
        0   40101   10101   20101   30101

      582     444     581     583     720
        0   40101   10101   20101   30101

      583     445     582     584     721
        0   40101   10101   20101   30101

      584     446     583     585     722
        0   40101   10101   20101   30101

      585     447     584     586     723
        0   40101   10101   20101   30101

      586     448     585     587     724
        0   40101   10101   20101   30101

      587     449     586     588     593     725
        0   40101   10101   20102   20202   30101

      588     455     587     589     591     593
        0   40101   10101   20102   20202   30101

      589     458     588     590     591
        0   40101   10101   20101   30101

      590     459     589     592     598
        0   40101   10101   30101   20101

      591     588     589     592     594
        0   10101   40101   20101   30101

      592     590     591     595     600
        0   40101   10101   30101   20101

      593     587     588     594     596     726
        0   10101   40101   20102   20202   30101

      594     591     593     595     596
        0   40101   10101   20101   30101

      595     592     594     597     606
        0   40101   10101   30101   20101

      596     593     594     597     727
        0   10101   40101   20101   30101

      597     595     596     608     728
        0   40101   10101   20101   30101

      598     470     590     599     600
        0   40101   10101   20101   30101

      599     471     598     601     602
        0   40101   10101   30101   20101

      600     592     598     601     606
        0   10101   40101   20101   30101

      601     599     600     604     607
        0   40101   10101   20101   30101

      602     474     599     603     604
        0   40101   10101   20101   30101

      603     475     602     605     614
        0   40101   10101   30101   20101

      604     601     602     605     610
        0   10101   40101   20101   30101

      605     603     604     611     616
        0   40101   10101   30101   20101

      606     595     600     607     608
        0   10101   40101   20101   30101

      607     601     606     609     610
        0   40101   10101   30101   20101

      608     597     606     609     736
        0   10101   40101   20101   30101

      609     607     608     612     737
        0   40101   10101   20101   30101

      610     604     607     611     612
        0   40101   10101   20101   30101

      611     605     610     613     622
        0   40101   10101   30101   20101

      612     609     610     613     740
        0   10101   40101   20101   30101

      613     611     612     624     741
        0   40101   10101   20101   30101

      614     486     603     615     616
        0   40101   10101   20101   30101

      615     487     614     617     618
        0   40101   10101   30101   20101

      616     605     614     617     622
        0   10101   40101   20101   30101

      617     615     616     620     623
        0   40101   10101   20101   30101

      618     490     615     619     620
        0   40101   10101   20101   30101

      619     491     618     621     630
        0   40101   10101   30101   20101

      620     617     618     621     626
        0   10101   40101   20101   30101

      621     619     620     627     632
        0   40101   10101   30101   20101

      622     611     616     623     624
        0   10101   40101   20101   30101

      623     617     622     625     626
        0   40101   10101   30101   20101

      624     613     622     625     752
        0   10101   40101   20101   30101

      625     623     624     628     753
        0   40101   10101   20101   30101

      626     620     623     627     628
        0   40101   10101   20101   30101

      627     621     626     629     638
        0   40101   10101   30101   20101

      628     625     626     629     756
        0   10101   40101   20101   30101

      629     627     628     640     757
        0   40101   10101   20101   30101

      630     502     619     631     632
        0   40101   10101   20101   30101

      631     503     630     633     634
        0   40101   10101   30101   20101

      632     621     630     633     638
        0   10101   40101   20101   30101

      633     631     632     636     639
        0   40101   10101   20101   30101

      634     506     631     635     636
        0   40101   10101   20101   30101

      635     507     634     637     646
        0   40101   10101   30101   20101

      636     633     634     637     642
        0   10101   40101   20101   30101

      637     635     636     643     648
        0   40101   10101   30101   20101

      638     627     632     639     640
        0   10101   40101   20101   30101

      639     633     638     641     642
        0   40101   10101   30101   20101

      640     629     638     641     768
        0   10101   40101   20101   30101

      641     639     640     644     769
        0   40101   10101   20101   30101

      642     636     639     643     644
        0   40101   10101   20101   30101

      643     637     642     645     651
        0   40101   10101   30101   20101

      644     641     642     645     772
        0   10101   40101   20101   30101

      645     643     644     653     773
        0   40101   10101   20101   30101

      646     515     635     647     648
        0   40101   10101   20101   30101

      647     516     646     649     650
        0   40101   10101   30101   20101

      648     637     646     649     651
        0   10101   40101   20101   30101

      649     647     648     650     652
        0   40101   10101   20101   30101

      650     517     647     649     655     656
        0   40101   10102   10202   30101   20101

      651     643     648     652     653
        0   10101   40101   20101   30101

      652     649     651     654     655
        0   40101   10101   30101   20101

      653     645     651     654     784
        0   10101   40101   20101   30101

      654     652     653     655     785
        0   40101   10101   20101   30101

      655     650     652     654     656     788
        0   40101   10102   10202   20101   30101

      656     518     650     655     657     794
        0   40101   10102   10202   20101   30101

      657     519     656     658     795
        0   40101   10101   20101   30101

      658     520     657     659     796
        0   40101   10101   20101   30101

      659     521     658     660     797
        0   40101   10101   20101   30101

      660     522     659     661     798
        0   40101   10101   20101   30101

      661     523     660     662     799
        0   40101   10101   20101   30101

      662     524     661     663     800
        0   40101   10101   20101   30101

      663     525     662     664     801
        0   40101   10101   20101   30101

      664     526     663     665     802
        0   40101   10101   20101   30101

      665     527     664     666     803
        0   40101   10101   20101   30101

      666     528     665     667     804
        0   40101   10101   20101   30101

      667     529     666     668     805
        0   40101   10101   20101   30101

      668     530     667     669     806
        0   40101   10101   20101   30101

      669     531     668     670     807
        0   40101   10101   20101   30101

      670     532     669     671     808
        0   40101   10101   20101   30101

      671     533     670     672     809
        0   40101   10101   20101   30101

      672     534     671     673     810
        0   40101   10101   20101   30101

      673     535     672     674     811
        0   40101   10101   20101   30101

      674     536     673     675     812
        0   40101   10101   20101   30101

      675     537     674     676     813
        0   40101   10101   20101   30101

      676     538     675     677     814
        0   40101   10101   20101   30101

      677     539     676     678     815
        0   40101   10101   20101   30101

      678     540     677     679     816
        0   40101   10101   20101   30101

      679     541     678     680     817
        0   40101   10101   20101   30101

      680     542     679     681     818
        0   40101   10101   20101   30101

      681     543     680     682     819
        0   40101   10101   20101   30101

      682     544     681     683     820
        0   40101   10101   20101   30101

      683     545     682     684     821
        0   40101   10101   20101   30101

      684     546     683     685     822
        0   40101   10101   20101   30101

      685     547     684     686     823
        0   40101   10101   20101   30101

      686     548     685     687     824
        0   40101   10101   20101   30101

      687     549     686     688     825
        0   40101   10101   20101   30101

      688     550     687     689     826
        0   40101   10101   20101   30101

      689     551     688     690     827
        0   40101   10101   20101   30101

      690     552     689     828
        0   40101   10101   30101

      691     553     692     829
        0   40101   20101   30101

      692     554     691     693     830
        0   40101   10101   20101   30101

      693     555     692     694     831
        0   40101   10101   20101   30101

      694     556     693     695     832
        0   40101   10101   20101   30101

      695     557     694     696     833
        0   40101   10101   20101   30101

      696     558     695     697     834
        0   40101   10101   20101   30101

      697     559     696     698     835
        0   40101   10101   20101   30101

      698     560     697     699     836
        0   40101   10101   20101   30101

      699     561     698     700     837
        0   40101   10101   20101   30101

      700     562     699     701     838
        0   40101   10101   20101   30101

      701     563     700     702     839
        0   40101   10101   20101   30101

      702     564     701     703     840
        0   40101   10101   20101   30101

      703     565     702     704     841
        0   40101   10101   20101   30101

      704     566     703     705     842
        0   40101   10101   20101   30101

      705     567     704     706     843
        0   40101   10101   20101   30101

      706     568     705     707     844
        0   40101   10101   20101   30101

      707     569     706     708     845
        0   40101   10101   20101   30101

      708     570     707     709     846
        0   40101   10101   20101   30101

      709     571     708     710     847
        0   40101   10101   20101   30101

      710     572     709     711     848
        0   40101   10101   20101   30101

      711     573     710     712     849
        0   40101   10101   20101   30101

      712     574     711     713     850
        0   40101   10101   20101   30101

      713     575     712     714     851
        0   40101   10101   20101   30101

      714     576     713     715     852
        0   40101   10101   20101   30101

      715     577     714     716     853
        0   40101   10101   20101   30101

      716     578     715     717     854
        0   40101   10101   20101   30101

      717     579     716     718     855
        0   40101   10101   20101   30101

      718     580     717     719     856
        0   40101   10101   20101   30101

      719     581     718     720     857
        0   40101   10101   20101   30101

      720     582     719     721     858
        0   40101   10101   20101   30101

      721     583     720     722     859
        0   40101   10101   20101   30101

      722     584     721     723     860
        0   40101   10101   20101   30101

      723     585     722     724     861
        0   40101   10101   20101   30101

      724     586     723     725     862
        0   40101   10101   20101   30101

      725     587     724     726     731     863
        0   40101   10101   20102   20202   30101

      726     593     725     727     729     731
        0   40101   10101   20102   20202   30101

      727     596     726     728     729
        0   40101   10101   20101   30101

      728     597     727     730     736
        0   40101   10101   30101   20101

      729     726     727     730     732
        0   10101   40101   20101   30101

      730     728     729     733     738
        0   40101   10101   30101   20101

      731     725     726     732     734     864
        0   10101   40101   20102   20202   30101

      732     729     731     733     734
        0   40101   10101   20101   30101

      733     730     732     735     744
        0   40101   10101   30101   20101

      734     731     732     735     865
        0   10101   40101   20101   30101

      735     733     734     746     866
        0   40101   10101   20101   30101

      736     608     728     737     738
        0   40101   10101   20101   30101

      737     609     736     739     740
        0   40101   10101   30101   20101

      738     730     736     739     744
        0   10101   40101   20101   30101

      739     737     738     742     745
        0   40101   10101   20101   30101

      740     612     737     741     742
        0   40101   10101   20101   30101

      741     613     740     743     752
        0   40101   10101   30101   20101

      742     739     740     743     748
        0   10101   40101   20101   30101

      743     741     742     749     754
        0   40101   10101   30101   20101

      744     733     738     745     746
        0   10101   40101   20101   30101

      745     739     744     747     748
        0   40101   10101   30101   20101

      746     735     744     747     874
        0   10101   40101   20101   30101

      747     745     746     750     875
        0   40101   10101   20101   30101

      748     742     745     749     750
        0   40101   10101   20101   30101

      749     743     748     751     760
        0   40101   10101   30101   20101

      750     747     748     751     878
        0   10101   40101   20101   30101

      751     749     750     762     879
        0   40101   10101   20101   30101

      752     624     741     753     754
        0   40101   10101   20101   30101

      753     625     752     755     756
        0   40101   10101   30101   20101

      754     743     752     755     760
        0   10101   40101   20101   30101

      755     753     754     758     761
        0   40101   10101   20101   30101

      756     628     753     757     758
        0   40101   10101   20101   30101

      757     629     756     759     768
        0   40101   10101   30101   20101

      758     755     756     759     764
        0   10101   40101   20101   30101

      759     757     758     765     770
        0   40101   10101   30101   20101

      760     749     754     761     762
        0   10101   40101   20101   30101

      761     755     760     763     764
        0   40101   10101   30101   20101

      762     751     760     763     890
        0   10101   40101   20101   30101

      763     761     762     766     891
        0   40101   10101   20101   30101

      764     758     761     765     766
        0   40101   10101   20101   30101

      765     759     764     767     776
        0   40101   10101   30101   20101

      766     763     764     767     894
        0   10101   40101   20101   30101

      767     765     766     778     895
        0   40101   10101   20101   30101

      768     640     757     769     770
        0   40101   10101   20101   30101

      769     641     768     771     772
        0   40101   10101   30101   20101

      770     759     768     771     776
        0   10101   40101   20101   30101

      771     769     770     774     777
        0   40101   10101   20101   30101

      772     644     769     773     774
        0   40101   10101   20101   30101

      773     645     772     775     784
        0   40101   10101   30101   20101

      774     771     772     775     780
        0   10101   40101   20101   30101

      775     773     774     781     786
        0   40101   10101   30101   20101

      776     765     770     777     778
        0   10101   40101   20101   30101

      777     771     776     779     780
        0   40101   10101   30101   20101

      778     767     776     779     906
        0   10101   40101   20101   30101

      779     777     778     782     907
        0   40101   10101   20101   30101

      780     774     777     781     782
        0   40101   10101   20101   30101

      781     775     780     783     789
        0   40101   10101   30101   20101

      782     779     780     783     910
        0   10101   40101   20101   30101

      783     781     782     791     911
        0   40101   10101   20101   30101

      784     653     773     785     786
        0   40101   10101   20101   30101

      785     654     784     787     788
        0   40101   10101   30101   20101

      786     775     784     787     789
        0   10101   40101   20101   30101

      787     785     786     788     790
        0   40101   10101   20101   30101

      788     655     785     787     793     794
        0   40101   10102   10202   30101   20101

      789     781     786     790     791
        0   10101   40101   20101   30101

      790     787     789     792     793
        0   40101   10101   30101   20101

      791     783     789     792     922
        0   10101   40101   20101   30101

      792     790     791     793     923
        0   40101   10101   20101   30101

      793     788     790     792     794     926
        0   40101   10102   10202   20101   30101

      794     656     788     793     795     932
        0   40101   10102   10202   20101   30101

      795     657     794     796     933
        0   40101   10101   20101   30101

      796     658     795     797     934
        0   40101   10101   20101   30101

      797     659     796     798     935
        0   40101   10101   20101   30101

      798     660     797     799     936
        0   40101   10101   20101   30101

      799     661     798     800     937
        0   40101   10101   20101   30101

      800     662     799     801     938
        0   40101   10101   20101   30101

      801     663     800     802     939
        0   40101   10101   20101   30101

      802     664     801     803     940
        0   40101   10101   20101   30101

      803     665     802     804     941
        0   40101   10101   20101   30101

      804     666     803     805     942
        0   40101   10101   20101   30101

      805     667     804     806     943
        0   40101   10101   20101   30101

      806     668     805     807     944
        0   40101   10101   20101   30101

      807     669     806     808     945
        0   40101   10101   20101   30101

      808     670     807     809     946
        0   40101   10101   20101   30101

      809     671     808     810     947
        0   40101   10101   20101   30101

      810     672     809     811     948
        0   40101   10101   20101   30101

      811     673     810     812     949
        0   40101   10101   20101   30101

      812     674     811     813     950
        0   40101   10101   20101   30101

      813     675     812     814     951
        0   40101   10101   20101   30101

      814     676     813     815     952
        0   40101   10101   20101   30101

      815     677     814     816     953
        0   40101   10101   20101   30101

      816     678     815     817     954
        0   40101   10101   20101   30101

      817     679     816     818     955
        0   40101   10101   20101   30101

      818     680     817     819     956
        0   40101   10101   20101   30101

      819     681     818     820     957
        0   40101   10101   20101   30101

      820     682     819     821     958
        0   40101   10101   20101   30101

      821     683     820     822     959
        0   40101   10101   20101   30101

      822     684     821     823     960
        0   40101   10101   20101   30101

      823     685     822     824     961
        0   40101   10101   20101   30101

      824     686     823     825     962
        0   40101   10101   20101   30101

      825     687     824     826     963
        0   40101   10101   20101   30101

      826     688     825     827     964
        0   40101   10101   20101   30101

      827     689     826     828     965
        0   40101   10101   20101   30101

      828     690     827     966
        0   40101   10101   30101

      829     691     830     967
        0   40101   20101   30101

      830     692     829     831     968
        0   40101   10101   20101   30101

      831     693     830     832     969
        0   40101   10101   20101   30101

      832     694     831     833     970
        0   40101   10101   20101   30101

      833     695     832     834     971
        0   40101   10101   20101   30101

      834     696     833     835     972
        0   40101   10101   20101   30101

      835     697     834     836     973
        0   40101   10101   20101   30101

      836     698     835     837     974
        0   40101   10101   20101   30101

      837     699     836     838     975
        0   40101   10101   20101   30101

      838     700     837     839     976
        0   40101   10101   20101   30101

      839     701     838     840     977
        0   40101   10101   20101   30101

      840     702     839     841     978
        0   40101   10101   20101   30101

      841     703     840     842     979
        0   40101   10101   20101   30101

      842     704     841     843     980
        0   40101   10101   20101   30101

      843     705     842     844     981
        0   40101   10101   20101   30101

      844     706     843     845     982
        0   40101   10101   20101   30101

      845     707     844     846     983
        0   40101   10101   20101   30101

      846     708     845     847     984
        0   40101   10101   20101   30101

      847     709     846     848     985
        0   40101   10101   20101   30101

      848     710     847     849     986
        0   40101   10101   20101   30101

      849     711     848     850     987
        0   40101   10101   20101   30101

      850     712     849     851     988
        0   40101   10101   20101   30101

      851     713     850     852     989
        0   40101   10101   20101   30101

      852     714     851     853     990
        0   40101   10101   20101   30101

      853     715     852     854     991
        0   40101   10101   20101   30101

      854     716     853     855     992
        0   40101   10101   20101   30101

      855     717     854     856     993
        0   40101   10101   20101   30101

      856     718     855     857     994
        0   40101   10101   20101   30101

      857     719     856     858     995
        0   40101   10101   20101   30101

      858     720     857     859     996
        0   40101   10101   20101   30101

      859     721     858     860     997
        0   40101   10101   20101   30101

      860     722     859     861     998
        0   40101   10101   20101   30101

      861     723     860     862     999
        0   40101   10101   20101   30101

      862     724     861     863    1000
        0   40101   10101   20101   30101

      863     725     862     864     869    1001
        0   40101   10101   20102   20202   30101

      864     731     863     865     867     869
        0   40101   10101   20102   20202   30101

      865     734     864     866     867
        0   40101   10101   20101   30101

      866     735     865     868     874
        0   40101   10101   30101   20101

      867     864     865     868     870
        0   10101   40101   20101   30101

      868     866     867     871     876
        0   40101   10101   30101   20101

      869     863     864     870     872    1002
        0   10101   40101   20102   20202   30101

      870     867     869     871     872
        0   40101   10101   20101   30101

      871     868     870     873     882
        0   40101   10101   30101   20101

      872     869     870     873    1003
        0   10101   40101   20101   30101

      873     871     872     884    1004
        0   40101   10101   20101   30101

      874     746     866     875     876
        0   40101   10101   20101   30101

      875     747     874     877     878
        0   40101   10101   30101   20101

      876     868     874     877     882
        0   10101   40101   20101   30101

      877     875     876     880     883
        0   40101   10101   20101   30101

      878     750     875     879     880
        0   40101   10101   20101   30101

      879     751     878     881     890
        0   40101   10101   30101   20101

      880     877     878     881     886
        0   10101   40101   20101   30101

      881     879     880     887     892
        0   40101   10101   30101   20101

      882     871     876     883     884
        0   10101   40101   20101   30101

      883     877     882     885     886
        0   40101   10101   30101   20101

      884     873     882     885    1012
        0   10101   40101   20101   30101

      885     883     884     888    1013
        0   40101   10101   20101   30101

      886     880     883     887     888
        0   40101   10101   20101   30101

      887     881     886     889     898
        0   40101   10101   30101   20101

      888     885     886     889    1016
        0   10101   40101   20101   30101

      889     887     888     900    1017
        0   40101   10101   20101   30101

      890     762     879     891     892
        0   40101   10101   20101   30101

      891     763     890     893     894
        0   40101   10101   30101   20101

      892     881     890     893     898
        0   10101   40101   20101   30101

      893     891     892     896     899
        0   40101   10101   20101   30101

      894     766     891     895     896
        0   40101   10101   20101   30101

      895     767     894     897     906
        0   40101   10101   30101   20101

      896     893     894     897     902
        0   10101   40101   20101   30101

      897     895     896     903     908
        0   40101   10101   30101   20101

      898     887     892     899     900
        0   10101   40101   20101   30101

      899     893     898     901     902
        0   40101   10101   30101   20101

      900     889     898     901    1028
        0   10101   40101   20101   30101

      901     899     900     904    1029
        0   40101   10101   20101   30101

      902     896     899     903     904
        0   40101   10101   20101   30101

      903     897     902     905     914
        0   40101   10101   30101   20101

      904     901     902     905    1032
        0   10101   40101   20101   30101

      905     903     904     916    1033
        0   40101   10101   20101   30101

      906     778     895     907     908
        0   40101   10101   20101   30101

      907     779     906     909     910
        0   40101   10101   30101   20101

      908     897     906     909     914
        0   10101   40101   20101   30101

      909     907     908     912     915
        0   40101   10101   20101   30101

      910     782     907     911     912
        0   40101   10101   20101   30101

      911     783     910     913     922
        0   40101   10101   30101   20101

      912     909     910     913     918
        0   10101   40101   20101   30101

      913     911     912     919     924
        0   40101   10101   30101   20101

      914     903     908     915     916
        0   10101   40101   20101   30101

      915     909     914     917     918
        0   40101   10101   30101   20101

      916     905     914     917    1044
        0   10101   40101   20101   30101

      917     915     916     920    1045
        0   40101   10101   20101   30101

      918     912     915     919     920
        0   40101   10101   20101   30101

      919     913     918     921     927
        0   40101   10101   30101   20101

      920     917     918     921    1048
        0   10101   40101   20101   30101

      921     919     920     929    1049
        0   40101   10101   20101   30101

      922     791     911     923     924
        0   40101   10101   20101   30101

      923     792     922     925     926
        0   40101   10101   30101   20101

      924     913     922     925     927
        0   10101   40101   20101   30101

      925     923     924     926     928
        0   40101   10101   20101   30101

      926     793     923     925     931     932
        0   40101   10102   10202   30101   20101

      927     919     924     928     929
        0   10101   40101   20101   30101

      928     925     927     930     931
        0   40101   10101   30101   20101

      929     921     927     930    1060
        0   10101   40101   20101   30101

      930     928     929     931    1061
        0   40101   10101   20101   30101

      931     926     928     930     932    1064
        0   40101   10102   10202   20101   30101

      932     794     926     931     933    1070
        0   40101   10102   10202   20101   30101

      933     795     932     934    1071
        0   40101   10101   20101   30101

      934     796     933     935    1072
        0   40101   10101   20101   30101

      935     797     934     936    1073
        0   40101   10101   20101   30101

      936     798     935     937    1074
        0   40101   10101   20101   30101

      937     799     936     938    1075
        0   40101   10101   20101   30101

      938     800     937     939    1076
        0   40101   10101   20101   30101

      939     801     938     940    1077
        0   40101   10101   20101   30101

      940     802     939     941    1078
        0   40101   10101   20101   30101

      941     803     940     942    1079
        0   40101   10101   20101   30101

      942     804     941     943    1080
        0   40101   10101   20101   30101

      943     805     942     944    1081
        0   40101   10101   20101   30101

      944     806     943     945    1082
        0   40101   10101   20101   30101

      945     807     944     946    1083
[...]
        0   40101   10101   20102   20202   30101

    18724   18593   18723   18725   18726
        0   40101   10101   20101   30101

    18725   18594   18724   18727   18733
        0   40101   10101   30101   20101

    18726   18723   18724   18727   18729
        0   10101   40101   20101   30101

    18727   18725   18726   18730   18735
        0   40101   10101   30101   20101

    18728   18722   18723   18729   18731   18861
        0   10101   40101   20102   20202   30101

    18729   18726   18728   18730   18731
        0   40101   10101   20101   30101

    18730   18727   18729   18732   18741
        0   40101   10101   30101   20101

    18731   18728   18729   18732   18862
        0   10101   40101   20101   30101

    18732   18730   18731   18743   18863
        0   40101   10101   20101   30101

    18733   18605   18725   18734   18735
        0   40101   10101   20101   30101

    18734   18606   18733   18736   18737
        0   40101   10101   30101   20101

    18735   18727   18733   18736   18741
        0   10101   40101   20101   30101

    18736   18734   18735   18739   18742
        0   40101   10101   20101   30101

    18737   18609   18734   18738   18739
        0   40101   10101   20101   30101

    18738   18610   18737   18740   18749
        0   40101   10101   30101   20101

    18739   18736   18737   18740   18745
        0   10101   40101   20101   30101

    18740   18738   18739   18746   18751
        0   40101   10101   30101   20101

    18741   18730   18735   18742   18743
        0   10101   40101   20101   30101

    18742   18736   18741   18744   18745
        0   40101   10101   30101   20101

    18743   18732   18741   18744   18871
        0   10101   40101   20101   30101

    18744   18742   18743   18747   18872
        0   40101   10101   20101   30101

    18745   18739   18742   18746   18747
        0   40101   10101   20101   30101

    18746   18740   18745   18748   18757
        0   40101   10101   30101   20101

    18747   18744   18745   18748   18875
        0   10101   40101   20101   30101

    18748   18746   18747   18759   18876
        0   40101   10101   20101   30101

    18749   18621   18738   18750   18751
        0   40101   10101   20101   30101

    18750   18622   18749   18752   18753
        0   40101   10101   30101   20101

    18751   18740   18749   18752   18757
        0   10101   40101   20101   30101

    18752   18750   18751   18755   18758
        0   40101   10101   20101   30101

    18753   18625   18750   18754   18755
        0   40101   10101   20101   30101

    18754   18626   18753   18756   18765
        0   40101   10101   30101   20101

    18755   18752   18753   18756   18761
        0   10101   40101   20101   30101

    18756   18754   18755   18762   18767
        0   40101   10101   30101   20101

    18757   18746   18751   18758   18759
        0   10101   40101   20101   30101

    18758   18752   18757   18760   18761
        0   40101   10101   30101   20101

    18759   18748   18757   18760   18887
        0   10101   40101   20101   30101

    18760   18758   18759   18763   18888
        0   40101   10101   20101   30101

    18761   18755   18758   18762   18763
        0   40101   10101   20101   30101

    18762   18756   18761   18764   18773
        0   40101   10101   30101   20101

    18763   18760   18761   18764   18891
        0   10101   40101   20101   30101

    18764   18762   18763   18775   18892
        0   40101   10101   20101   30101

    18765   18637   18754   18766   18767
        0   40101   10101   20101   30101

    18766   18638   18765   18768   18769
        0   40101   10101   30101   20101

    18767   18756   18765   18768   18773
        0   10101   40101   20101   30101

    18768   18766   18767   18771   18774
        0   40101   10101   20101   30101

    18769   18641   18766   18770   18771
        0   40101   10101   20101   30101

    18770   18642   18769   18772   18781
        0   40101   10101   30101   20101

    18771   18768   18769   18772   18777
        0   10101   40101   20101   30101

    18772   18770   18771   18778   18783
        0   40101   10101   30101   20101

    18773   18762   18767   18774   18775
        0   10101   40101   20101   30101

    18774   18768   18773   18776   18777
        0   40101   10101   30101   20101

    18775   18764   18773   18776   18903
        0   10101   40101   20101   30101

    18776   18774   18775   18779   18904
        0   40101   10101   20101   30101

    18777   18771   18774   18778   18779
        0   40101   10101   20101   30101

    18778   18772   18777   18780   18786
        0   40101   10101   30101   20101

    18779   18776   18777   18780   18907
        0   10101   40101   20101   30101

    18780   18778   18779   18788   18908
        0   40101   10101   20101   30101

    18781   18650   18770   18782   18783
        0   40101   10101   20101   30101

    18782   18651   18781   18784   18785
        0   40101   10101   30101   20101

    18783   18772   18781   18784   18786
        0   10101   40101   20101   30101

    18784   18782   18783   18785   18787
        0   40101   10101   20101   30101

    18785   18652   18782   18784   18790   18791
        0   40101   10102   10202   30101   20101

    18786   18778   18783   18787   18788
        0   10101   40101   20101   30101

    18787   18784   18786   18789   18790
        0   40101   10101   30101   20101

    18788   18780   18786   18789   18919
        0   10101   40101   20101   30101

    18789   18787   18788   18790   18920
        0   40101   10101   20101   30101

    18790   18785   18787   18789   18791   18923
        0   40101   10102   10202   20101   30101

    18791   18653   18785   18790   18792   18929
        0   40101   10102   10202   20101   30101

    18792   18654   18791   18793   18930
        0   40101   10101   20101   30101

    18793   18655   18792   18794   18931
        0   40101   10101   20101   30101

    18794   18656   18793   18795   18932
        0   40101   10101   20101   30101

    18795   18657   18794   18796   18933
        0   40101   10101   20101   30101

    18796   18658   18795   18797   18934
        0   40101   10101   20101   30101

    18797   18659   18796   18798   18935
        0   40101   10101   20101   30101

    18798   18660   18797   18799   18936
        0   40101   10101   20101   30101

    18799   18661   18798   18800   18937
        0   40101   10101   20101   30101

    18800   18662   18799   18801   18938
        0   40101   10101   20101   30101

    18801   18663   18800   18802   18939
        0   40101   10101   20101   30101

    18802   18664   18801   18803   18940
        0   40101   10101   20101   30101

    18803   18665   18802   18804   18941
        0   40101   10101   20101   30101

    18804   18666   18803   18805   18942
        0   40101   10101   20101   30101

    18805   18667   18804   18806   18943
        0   40101   10101   20101   30101

    18806   18668   18805   18807   18944
        0   40101   10101   20101   30101

    18807   18669   18806   18808   18945
        0   40101   10101   20101   30101

    18808   18670   18807   18809   18946
        0   40101   10101   20101   30101

    18809   18671   18808   18810   18947
        0   40101   10101   20101   30101

    18810   18672   18809   18811   18948
        0   40101   10101   20101   30101

    18811   18673   18810   18812   18949
        0   40101   10101   20101   30101

    18812   18674   18811   18813   18950
        0   40101   10101   20101   30101

    18813   18675   18812   18814   18951
        0   40101   10101   20101   30101

    18814   18676   18813   18815   18952
        0   40101   10101   20101   30101

    18815   18677   18814   18816   18953
        0   40101   10101   20101   30101

    18816   18678   18815   18817   18954
        0   40101   10101   20101   30101

    18817   18679   18816   18818   18955
        0   40101   10101   20101   30101

    18818   18680   18817   18819   18956
        0   40101   10101   20101   30101

    18819   18681   18818   18820   18957
        0   40101   10101   20101   30101

    18820   18682   18819   18821   18958
        0   40101   10101   20101   30101

    18821   18683   18820   18822   18959
        0   40101   10101   20101   30101

    18822   18684   18821   18823   18960
        0   40101   10101   20101   30101

    18823   18685   18822   18824   18961
        0   40101   10101   20101   30101

    18824   18686   18823   18825   18962
        0   40101   10101   20101   30101

    18825   18687   18824   18963
        0   40101   10101   30101

    18826   18688   18827
        0   40101   20101

    18827   18689   18826   18828
        0   40101   10101   20101

    18828   18690   18827   18829
        0   40101   10101   20101

    18829   18691   18828   18830
        0   40101   10101   20101

    18830   18692   18829   18831
        0   40101   10101   20101

    18831   18693   18830   18832
        0   40101   10101   20101

    18832   18694   18831   18833
        0   40101   10101   20101

    18833   18695   18832   18834
        0   40101   10101   20101

    18834   18696   18833   18835
        0   40101   10101   20101

    18835   18697   18834   18836
        0   40101   10101   20101

    18836   18698   18835   18837
        0   40101   10101   20101

    18837   18699   18836   18838
        0   40101   10101   20101

    18838   18700   18837   18839
        0   40101   10101   20101

    18839   18701   18838   18840
        0   40101   10101   20101

    18840   18702   18839   18841
        0   40101   10101   20101

    18841   18703   18840   18842
        0   40101   10101   20101

    18842   18704   18841   18843
        0   40101   10101   20101

    18843   18705   18842   18844
        0   40101   10101   20101

    18844   18706   18843   18845
        0   40101   10101   20101

    18845   18707   18844   18846
        0   40101   10101   20101

    18846   18708   18845   18847
        0   40101   10101   20101

    18847   18709   18846   18848
        0   40101   10101   20101

    18848   18710   18847   18849
        0   40101   10101   20101

    18849   18711   18848   18850
        0   40101   10101   20101

    18850   18712   18849   18851
        0   40101   10101   20101

    18851   18713   18850   18852
        0   40101   10101   20101

    18852   18714   18851   18853
        0   40101   10101   20101

    18853   18715   18852   18854
        0   40101   10101   20101

    18854   18716   18853   18855
        0   40101   10101   20101

    18855   18717   18854   18856
        0   40101   10101   20101

    18856   18718   18855   18857
        0   40101   10101   20101

    18857   18719   18856   18858
        0   40101   10101   20101

    18858   18720   18857   18859
        0   40101   10101   20101

    18859   18721   18858   18860
        0   40101   10101   20101

    18860   18722   18859   18861   18866
        0   40101   10101   20102   20202

    18861   18728   18860   18862   18864   18866
        0   40101   10101   20102   20202   30101

    18862   18731   18861   18863   18864
        0   40101   10101   20101   30101

    18863   18732   18862   18865   18871
        0   40101   10101   30101   20101

    18864   18861   18862   18865   18867
        0   10101   40101   20101   30101

    18865   18863   18864   18868   18873
        0   40101   10101   30101   20101

    18866   18860   18861   18867   18869
        0   10101   40101   20102   20202

    18867   18864   18866   18868   18869
        0   40101   10101   20101   30101

    18868   18865   18867   18870   18879
        0   40101   10101   30101   20101

    18869   18866   18867   18870
        0   10101   40101   20101

    18870   18868   18869   18881
        0   40101   10101   20101

    18871   18743   18863   18872   18873
        0   40101   10101   20101   30101

    18872   18744   18871   18874   18875
        0   40101   10101   30101   20101

    18873   18865   18871   18874   18879
        0   10101   40101   20101   30101

    18874   18872   18873   18877   18880
        0   40101   10101   20101   30101

    18875   18747   18872   18876   18877
        0   40101   10101   20101   30101

    18876   18748   18875   18878   18887
        0   40101   10101   30101   20101

    18877   18874   18875   18878   18883
        0   10101   40101   20101   30101

    18878   18876   18877   18884   18889
        0   40101   10101   30101   20101

    18879   18868   18873   18880   18881
        0   10101   40101   20101   30101

    18880   18874   18879   18882   18883
        0   40101   10101   30101   20101

    18881   18870   18879   18882
        0   10101   40101   20101

    18882   18880   18881   18885
        0   40101   10101   20101

    18883   18877   18880   18884   18885
        0   40101   10101   20101   30101

    18884   18878   18883   18886   18895
        0   40101   10101   30101   20101

    18885   18882   18883   18886
        0   10101   40101   20101

    18886   18884   18885   18897
        0   40101   10101   20101

    18887   18759   18876   18888   18889
        0   40101   10101   20101   30101

    18888   18760   18887   18890   18891
        0   40101   10101   30101   20101

    18889   18878   18887   18890   18895
        0   10101   40101   20101   30101

    18890   18888   18889   18893   18896
        0   40101   10101   20101   30101

    18891   18763   18888   18892   18893
        0   40101   10101   20101   30101

    18892   18764   18891   18894   18903
        0   40101   10101   30101   20101

    18893   18890   18891   18894   18899
        0   10101   40101   20101   30101

    18894   18892   18893   18900   18905
        0   40101   10101   30101   20101

    18895   18884   18889   18896   18897
        0   10101   40101   20101   30101

    18896   18890   18895   18898   18899
        0   40101   10101   30101   20101

    18897   18886   18895   18898
        0   10101   40101   20101

    18898   18896   18897   18901
        0   40101   10101   20101

    18899   18893   18896   18900   18901
        0   40101   10101   20101   30101

    18900   18894   18899   18902   18911
        0   40101   10101   30101   20101

    18901   18898   18899   18902
        0   10101   40101   20101

    18902   18900   18901   18913
        0   40101   10101   20101

    18903   18775   18892   18904   18905
        0   40101   10101   20101   30101

    18904   18776   18903   18906   18907
        0   40101   10101   30101   20101

    18905   18894   18903   18906   18911
        0   10101   40101   20101   30101

    18906   18904   18905   18909   18912
        0   40101   10101   20101   30101

    18907   18779   18904   18908   18909
        0   40101   10101   20101   30101

    18908   18780   18907   18910   18919
        0   40101   10101   30101   20101

    18909   18906   18907   18910   18915
        0   10101   40101   20101   30101

    18910   18908   18909   18916   18921
        0   40101   10101   30101   20101

    18911   18900   18905   18912   18913
        0   10101   40101   20101   30101

    18912   18906   18911   18914   18915
        0   40101   10101   30101   20101

    18913   18902   18911   18914
        0   10101   40101   20101

    18914   18912   18913   18917
        0   40101   10101   20101

    18915   18909   18912   18916   18917
        0   40101   10101   20101   30101

    18916   18910   18915   18918   18924
        0   40101   10101   30101   20101

    18917   18914   18915   18918
        0   10101   40101   20101

    18918   18916   18917   18926
        0   40101   10101   20101

    18919   18788   18908   18920   18921
        0   40101   10101   20101   30101

    18920   18789   18919   18922   18923
        0   40101   10101   30101   20101

    18921   18910   18919   18922   18924
        0   10101   40101   20101   30101

    18922   18920   18921   18923   18925
        0   40101   10101   20101   30101

    18923   18790   18920   18922   18928   18929
        0   40101   10102   10202   30101   20101

    18924   18916   18921   18925   18926
        0   10101   40101   20101   30101

    18925   18922   18924   18927   18928
        0   40101   10101   30101   20101

    18926   18918   18924   18927
        0   10101   40101   20101

    18927   18925   18926   18928
        0   40101   10101   20101

    18928   18923   18925   18927   18929
        0   40101   10102   10202   20101

    18929   18791   18923   18928   18930
        0   40101   10102   10202   20101

    18930   18792   18929   18931
        0   40101   10101   20101

    18931   18793   18930   18932
        0   40101   10101   20101

    18932   18794   18931   18933
        0   40101   10101   20101

    18933   18795   18932   18934
        0   40101   10101   20101

    18934   18796   18933   18935
        0   40101   10101   20101

    18935   18797   18934   18936
        0   40101   10101   20101

    18936   18798   18935   18937
        0   40101   10101   20101

    18937   18799   18936   18938
        0   40101   10101   20101

    18938   18800   18937   18939
        0   40101   10101   20101

    18939   18801   18938   18940
        0   40101   10101   20101

    18940   18802   18939   18941
        0   40101   10101   20101

    18941   18803   18940   18942
        0   40101   10101   20101

    18942   18804   18941   18943
        0   40101   10101   20101

    18943   18805   18942   18944
        0   40101   10101   20101

    18944   18806   18943   18945
        0   40101   10101   20101

    18945   18807   18944   18946
        0   40101   10101   20101

    18946   18808   18945   18947
        0   40101   10101   20101

    18947   18809   18946   18948
        0   40101   10101   20101

    18948   18810   18947   18949
        0   40101   10101   20101

    18949   18811   18948   18950
        0   40101   10101   20101

    18950   18812   18949   18951
        0   40101   10101   20101

    18951   18813   18950   18952
        0   40101   10101   20101

    18952   18814   18951   18953
        0   40101   10101   20101

    18953   18815   18952   18954
        0   40101   10101   20101

    18954   18816   18953   18955
        0   40101   10101   20101

    18955   18817   18954   18956
        0   40101   10101   20101

    18956   18818   18955   18957
        0   40101   10101   20101

    18957   18819   18956   18958
        0   40101   10101   20101

    18958   18820   18957   18959
        0   40101   10101   20101

    18959   18821   18958   18960
        0   40101   10101   20101

    18960   18822   18959   18961
        0   40101   10101   20101

    18961   18823   18960   18962
        0   40101   10101   20101

    18962   18824   18961   18963
        0   40101   10101   20101

    18963   18825   18962
        0   40101   10101

Allocate budget reader component.
Open budget file in budget reader.
Allocate head reader component.
Open head file in head reader component.
Allocate MODPATH basic data component.
Read MODPATH basic data component.
Read the remainder of the MODPATH simulation data component.
Allocate particle tracking engine component.
Compute range of time steps. Prepare for time step loop                                                                             
Begin TIME_STEP_LOOP
Compute TSMAX                                                                                                                       
Begin TRACKING_INTERVAL_LOOP
Exit TRACKING_INTERVAL_LOOP
Exit TIME_STEP_LOOP
Write endpoint file.
Consolidating pathline segments.
Begin memory deallocation.
Memory deallocation complete.
